<?xml version="1.0" encoding="UTF-8"?>

<!-- generated on ven 01 mai 2020 17:10:20 CEST by Eclipse SUMO netedit Version 1.2.0
<configuration xmlns:xsi="http://www.w3.org/2001/XMLSchema-instance" xsi:noNamespaceSchemaLocation="http://sumo.dlr.de/xsd/netconvertConfiguration.xsd">

    <input>
        <sumo-net-file value="/home/cyril/TFE/PDITSCS/sumo_sim/arterial.net.xml"/>
    </input>

    <output>
        <output-file value="/home/cyril/TFE/PDITSCS/sumo_sim/arterial.net.xml"/>
    </output>

    <processing>
        <geometry.max-grade.fix value="false"/>
        <offset.disable-normalization value="true"/>
        <lefthand value="false"/>
    </processing>

    <junctions>
        <no-turnarounds value="true"/>
        <junctions.corner-detail value="5"/>
        <junctions.limit-turn-speed value="5.5"/>
        <rectangular-lane-cut value="false"/>
    </junctions>

    <pedestrian>
        <walkingareas value="false"/>
    </pedestrian>

</configuration>
-->

<net version="1.1" junctionCornerDetail="5" limitTurnSpeed="5.50" xmlns:xsi="http://www.w3.org/2001/XMLSchema-instance" xsi:noNamespaceSchemaLocation="http://sumo.dlr.de/xsd/net_file.xsd">

    <location netOffset="0.00,0.00" convBoundary="-300.00,-100.00,300.00,100.00" origBoundary="-10000000000.00,-10000000000.00,10000000000.00,10000000000.00" projParameter="!"/>

    <edge id=":10_0" function="internal">
        <lane id=":10_0_0" index="0" speed="6.51" length="9.03" shape="98.40,7.20 98.05,4.75 97.00,3.00 95.25,1.95 92.80,1.60"/>
    </edge>
    <edge id=":10_1" function="internal">
        <lane id=":10_1_0" index="0" speed="13.89" length="14.40" shape="98.40,7.20 98.40,-7.20"/>
    </edge>
    <edge id=":10_2" function="internal">
        <lane id=":10_2_0" index="0" speed="8.00" length="5.93" shape="98.40,7.20 98.95,3.35 100.00,1.60"/>
    </edge>
    <edge id=":10_12" function="internal">
        <lane id=":10_12_0" index="0" speed="8.00" length="8.26" shape="100.00,1.60 100.60,0.60 103.35,-1.05 107.20,-1.60"/>
    </edge>
    <edge id=":10_3" function="internal">
        <lane id=":10_3_0" index="0" speed="6.51" length="9.03" shape="107.20,1.60 104.75,1.95 103.00,3.00 101.95,4.75 101.60,7.20"/>
    </edge>
    <edge id=":10_4" function="internal">
        <lane id=":10_4_0" index="0" speed="13.89" length="14.40" shape="107.20,1.60 92.80,1.60"/>
    </edge>
    <edge id=":10_5" function="internal">
        <lane id=":10_5_0" index="0" speed="8.00" length="5.93" shape="107.20,1.60 103.35,1.05 101.60,-0.00"/>
    </edge>
    <edge id=":10_13" function="internal">
        <lane id=":10_13_0" index="0" speed="8.00" length="8.26" shape="101.60,-0.00 100.60,-0.60 98.95,-3.35 98.40,-7.20"/>
    </edge>
    <edge id=":10_6" function="internal">
        <lane id=":10_6_0" index="0" speed="6.51" length="9.03" shape="101.60,-7.20 101.95,-4.75 103.00,-3.00 104.75,-1.95 107.20,-1.60"/>
    </edge>
    <edge id=":10_7" function="internal">
        <lane id=":10_7_0" index="0" speed="13.89" length="14.40" shape="101.60,-7.20 101.60,7.20"/>
    </edge>
    <edge id=":10_8" function="internal">
        <lane id=":10_8_0" index="0" speed="8.00" length="5.93" shape="101.60,-7.20 101.05,-3.35 100.00,-1.60"/>
    </edge>
    <edge id=":10_14" function="internal">
        <lane id=":10_14_0" index="0" speed="8.00" length="8.26" shape="100.00,-1.60 99.40,-0.60 96.65,1.05 92.80,1.60"/>
    </edge>
    <edge id=":10_9" function="internal">
        <lane id=":10_9_0" index="0" speed="6.51" length="9.03" shape="92.80,-1.60 95.25,-1.95 97.00,-3.00 98.05,-4.75 98.40,-7.20"/>
    </edge>
    <edge id=":10_10" function="internal">
        <lane id=":10_10_0" index="0" speed="13.89" length="14.40" shape="92.80,-1.60 107.20,-1.60"/>
    </edge>
    <edge id=":10_11" function="internal">
        <lane id=":10_11_0" index="0" speed="8.00" length="5.93" shape="92.80,-1.60 96.65,-1.05 98.40,0.00"/>
    </edge>
    <edge id=":10_15" function="internal">
        <lane id=":10_15_0" index="0" speed="8.00" length="8.26" shape="98.40,0.00 99.40,0.60 101.05,3.35 101.60,7.20"/>
    </edge>
    <edge id=":11_0" function="internal">
        <lane id=":11_0_0" index="0" speed="6.51" length="9.03" shape="198.40,7.20 198.05,4.75 197.00,3.00 195.25,1.95 192.80,1.60"/>
    </edge>
    <edge id=":11_1" function="internal">
        <lane id=":11_1_0" index="0" speed="13.89" length="14.40" shape="198.40,7.20 198.40,-7.20"/>
    </edge>
    <edge id=":11_2" function="internal">
        <lane id=":11_2_0" index="0" speed="8.00" length="5.93" shape="198.40,7.20 198.95,3.35 200.00,1.60"/>
    </edge>
    <edge id=":11_12" function="internal">
        <lane id=":11_12_0" index="0" speed="8.00" length="8.26" shape="200.00,1.60 200.60,0.60 203.35,-1.05 207.20,-1.60"/>
    </edge>
    <edge id=":11_3" function="internal">
        <lane id=":11_3_0" index="0" speed="6.51" length="9.03" shape="207.20,1.60 204.75,1.95 203.00,3.00 201.95,4.75 201.60,7.20"/>
    </edge>
    <edge id=":11_4" function="internal">
        <lane id=":11_4_0" index="0" speed="13.89" length="14.40" shape="207.20,1.60 192.80,1.60"/>
    </edge>
    <edge id=":11_5" function="internal">
        <lane id=":11_5_0" index="0" speed="8.00" length="5.93" shape="207.20,1.60 203.35,1.05 201.60,-0.00"/>
    </edge>
    <edge id=":11_13" function="internal">
        <lane id=":11_13_0" index="0" speed="8.00" length="8.26" shape="201.60,-0.00 200.60,-0.60 198.95,-3.35 198.40,-7.20"/>
    </edge>
    <edge id=":11_6" function="internal">
        <lane id=":11_6_0" index="0" speed="6.51" length="9.03" shape="201.60,-7.20 201.95,-4.75 203.00,-3.00 204.75,-1.95 207.20,-1.60"/>
    </edge>
    <edge id=":11_7" function="internal">
        <lane id=":11_7_0" index="0" speed="13.89" length="14.40" shape="201.60,-7.20 201.60,7.20"/>
    </edge>
    <edge id=":11_8" function="internal">
        <lane id=":11_8_0" index="0" speed="8.00" length="5.93" shape="201.60,-7.20 201.05,-3.35 200.00,-1.60"/>
    </edge>
    <edge id=":11_14" function="internal">
        <lane id=":11_14_0" index="0" speed="8.00" length="8.26" shape="200.00,-1.60 199.40,-0.60 196.65,1.05 192.80,1.60"/>
    </edge>
    <edge id=":11_9" function="internal">
        <lane id=":11_9_0" index="0" speed="6.51" length="9.03" shape="192.80,-1.60 195.25,-1.95 197.00,-3.00 198.05,-4.75 198.40,-7.20"/>
    </edge>
    <edge id=":11_10" function="internal">
        <lane id=":11_10_0" index="0" speed="13.89" length="14.40" shape="192.80,-1.60 207.20,-1.60"/>
    </edge>
    <edge id=":11_11" function="internal">
        <lane id=":11_11_0" index="0" speed="8.00" length="5.93" shape="192.80,-1.60 196.65,-1.05 198.40,0.00"/>
    </edge>
    <edge id=":11_15" function="internal">
        <lane id=":11_15_0" index="0" speed="8.00" length="8.26" shape="198.40,0.00 199.40,0.60 201.05,3.35 201.60,7.20"/>
    </edge>
    <edge id=":7_0" function="internal">
        <lane id=":7_0_0" index="0" speed="6.51" length="9.03" shape="-201.60,7.20 -201.95,4.75 -203.00,3.00 -204.75,1.95 -207.20,1.60"/>
    </edge>
    <edge id=":7_1" function="internal">
        <lane id=":7_1_0" index="0" speed="13.89" length="14.40" shape="-201.60,7.20 -201.60,-7.20"/>
    </edge>
    <edge id=":7_2" function="internal">
        <lane id=":7_2_0" index="0" speed="8.00" length="5.93" shape="-201.60,7.20 -201.05,3.35 -200.00,1.60"/>
    </edge>
    <edge id=":7_12" function="internal">
        <lane id=":7_12_0" index="0" speed="8.00" length="8.26" shape="-200.00,1.60 -199.40,0.60 -196.65,-1.05 -192.80,-1.60"/>
    </edge>
    <edge id=":7_3" function="internal">
        <lane id=":7_3_0" index="0" speed="6.51" length="9.03" shape="-192.80,1.60 -195.25,1.95 -197.00,3.00 -198.05,4.75 -198.40,7.20"/>
    </edge>
    <edge id=":7_4" function="internal">
        <lane id=":7_4_0" index="0" speed="13.89" length="14.40" shape="-192.80,1.60 -207.20,1.60"/>
    </edge>
    <edge id=":7_5" function="internal">
        <lane id=":7_5_0" index="0" speed="8.00" length="5.93" shape="-192.80,1.60 -196.65,1.05 -198.40,-0.00"/>
    </edge>
    <edge id=":7_13" function="internal">
        <lane id=":7_13_0" index="0" speed="8.00" length="8.26" shape="-198.40,-0.00 -199.40,-0.60 -201.05,-3.35 -201.60,-7.20"/>
    </edge>
    <edge id=":7_6" function="internal">
        <lane id=":7_6_0" index="0" speed="6.51" length="9.03" shape="-198.40,-7.20 -198.05,-4.75 -197.00,-3.00 -195.25,-1.95 -192.80,-1.60"/>
    </edge>
    <edge id=":7_7" function="internal">
        <lane id=":7_7_0" index="0" speed="13.89" length="14.40" shape="-198.40,-7.20 -198.40,7.20"/>
    </edge>
    <edge id=":7_8" function="internal">
        <lane id=":7_8_0" index="0" speed="8.00" length="5.93" shape="-198.40,-7.20 -198.95,-3.35 -200.00,-1.60"/>
    </edge>
    <edge id=":7_14" function="internal">
        <lane id=":7_14_0" index="0" speed="8.00" length="8.26" shape="-200.00,-1.60 -200.60,-0.60 -203.35,1.05 -207.20,1.60"/>
    </edge>
    <edge id=":7_9" function="internal">
        <lane id=":7_9_0" index="0" speed="6.51" length="9.03" shape="-207.20,-1.60 -204.75,-1.95 -203.00,-3.00 -201.95,-4.75 -201.60,-7.20"/>
    </edge>
    <edge id=":7_10" function="internal">
        <lane id=":7_10_0" index="0" speed="13.89" length="14.40" shape="-207.20,-1.60 -192.80,-1.60"/>
    </edge>
    <edge id=":7_11" function="internal">
        <lane id=":7_11_0" index="0" speed="8.00" length="5.93" shape="-207.20,-1.60 -203.35,-1.05 -201.60,0.00"/>
    </edge>
    <edge id=":7_15" function="internal">
        <lane id=":7_15_0" index="0" speed="8.00" length="8.26" shape="-201.60,0.00 -200.60,0.60 -198.95,3.35 -198.40,7.20"/>
    </edge>
    <edge id=":8_0" function="internal">
        <lane id=":8_0_0" index="0" speed="6.51" length="9.03" shape="-101.60,7.20 -101.95,4.75 -103.00,3.00 -104.75,1.95 -107.20,1.60"/>
    </edge>
    <edge id=":8_1" function="internal">
        <lane id=":8_1_0" index="0" speed="13.89" length="14.40" shape="-101.60,7.20 -101.60,-7.20"/>
    </edge>
    <edge id=":8_2" function="internal">
        <lane id=":8_2_0" index="0" speed="8.00" length="5.93" shape="-101.60,7.20 -101.05,3.35 -100.00,1.60"/>
    </edge>
    <edge id=":8_12" function="internal">
        <lane id=":8_12_0" index="0" speed="8.00" length="8.26" shape="-100.00,1.60 -99.40,0.60 -96.65,-1.05 -92.80,-1.60"/>
    </edge>
    <edge id=":8_3" function="internal">
        <lane id=":8_3_0" index="0" speed="6.51" length="9.03" shape="-92.80,1.60 -95.25,1.95 -97.00,3.00 -98.05,4.75 -98.40,7.20"/>
    </edge>
    <edge id=":8_4" function="internal">
        <lane id=":8_4_0" index="0" speed="13.89" length="14.40" shape="-92.80,1.60 -107.20,1.60"/>
    </edge>
    <edge id=":8_5" function="internal">
        <lane id=":8_5_0" index="0" speed="8.00" length="5.93" shape="-92.80,1.60 -96.65,1.05 -98.40,-0.00"/>
    </edge>
    <edge id=":8_13" function="internal">
        <lane id=":8_13_0" index="0" speed="8.00" length="8.26" shape="-98.40,-0.00 -99.40,-0.60 -101.05,-3.35 -101.60,-7.20"/>
    </edge>
    <edge id=":8_6" function="internal">
        <lane id=":8_6_0" index="0" speed="6.51" length="9.03" shape="-98.40,-7.20 -98.05,-4.75 -97.00,-3.00 -95.25,-1.95 -92.80,-1.60"/>
    </edge>
    <edge id=":8_7" function="internal">
        <lane id=":8_7_0" index="0" speed="13.89" length="14.40" shape="-98.40,-7.20 -98.40,7.20"/>
    </edge>
    <edge id=":8_8" function="internal">
        <lane id=":8_8_0" index="0" speed="8.00" length="5.93" shape="-98.40,-7.20 -98.95,-3.35 -100.00,-1.60"/>
    </edge>
    <edge id=":8_14" function="internal">
        <lane id=":8_14_0" index="0" speed="8.00" length="8.26" shape="-100.00,-1.60 -100.60,-0.60 -103.35,1.05 -107.20,1.60"/>
    </edge>
    <edge id=":8_9" function="internal">
        <lane id=":8_9_0" index="0" speed="6.51" length="9.03" shape="-107.20,-1.60 -104.75,-1.95 -103.00,-3.00 -101.95,-4.75 -101.60,-7.20"/>
    </edge>
    <edge id=":8_10" function="internal">
        <lane id=":8_10_0" index="0" speed="13.89" length="14.40" shape="-107.20,-1.60 -92.80,-1.60"/>
    </edge>
    <edge id=":8_11" function="internal">
        <lane id=":8_11_0" index="0" speed="8.00" length="5.93" shape="-107.20,-1.60 -103.35,-1.05 -101.60,0.00"/>
    </edge>
    <edge id=":8_15" function="internal">
        <lane id=":8_15_0" index="0" speed="8.00" length="8.26" shape="-101.60,0.00 -100.60,0.60 -98.95,3.35 -98.40,7.20"/>
    </edge>
    <edge id=":9_0" function="internal">
        <lane id=":9_0_0" index="0" speed="6.51" length="9.03" shape="-1.60,7.20 -1.95,4.75 -3.00,3.00 -4.75,1.95 -7.20,1.60"/>
    </edge>
    <edge id=":9_1" function="internal">
        <lane id=":9_1_0" index="0" speed="13.89" length="14.40" shape="-1.60,7.20 -1.60,-7.20"/>
    </edge>
    <edge id=":9_2" function="internal">
        <lane id=":9_2_0" index="0" speed="8.00" length="5.93" shape="-1.60,7.20 -1.05,3.35 0.00,1.60"/>
    </edge>
    <edge id=":9_12" function="internal">
        <lane id=":9_12_0" index="0" speed="8.00" length="8.26" shape="0.00,1.60 0.60,0.60 3.35,-1.05 7.20,-1.60"/>
    </edge>
    <edge id=":9_3" function="internal">
        <lane id=":9_3_0" index="0" speed="6.51" length="9.03" shape="7.20,1.60 4.75,1.95 3.00,3.00 1.95,4.75 1.60,7.20"/>
    </edge>
    <edge id=":9_4" function="internal">
        <lane id=":9_4_0" index="0" speed="13.89" length="14.40" shape="7.20,1.60 -7.20,1.60"/>
    </edge>
    <edge id=":9_5" function="internal">
        <lane id=":9_5_0" index="0" speed="8.00" length="5.93" shape="7.20,1.60 3.35,1.05 1.60,-0.00"/>
    </edge>
    <edge id=":9_13" function="internal">
        <lane id=":9_13_0" index="0" speed="8.00" length="8.26" shape="1.60,-0.00 0.60,-0.60 -1.05,-3.35 -1.60,-7.20"/>
    </edge>
    <edge id=":9_6" function="internal">
        <lane id=":9_6_0" index="0" speed="6.51" length="9.03" shape="1.60,-7.20 1.95,-4.75 3.00,-3.00 4.75,-1.95 7.20,-1.60"/>
    </edge>
    <edge id=":9_7" function="internal">
        <lane id=":9_7_0" index="0" speed="13.89" length="14.40" shape="1.60,-7.20 1.60,7.20"/>
    </edge>
    <edge id=":9_8" function="internal">
        <lane id=":9_8_0" index="0" speed="8.00" length="5.93" shape="1.60,-7.20 1.05,-3.35 -0.00,-1.60"/>
    </edge>
    <edge id=":9_14" function="internal">
        <lane id=":9_14_0" index="0" speed="8.00" length="8.26" shape="-0.00,-1.60 -0.60,-0.60 -3.35,1.05 -7.20,1.60"/>
    </edge>
    <edge id=":9_9" function="internal">
        <lane id=":9_9_0" index="0" speed="6.51" length="9.03" shape="-7.20,-1.60 -4.75,-1.95 -3.00,-3.00 -1.95,-4.75 -1.60,-7.20"/>
    </edge>
    <edge id=":9_10" function="internal">
        <lane id=":9_10_0" index="0" speed="13.89" length="14.40" shape="-7.20,-1.60 7.20,-1.60"/>
    </edge>
    <edge id=":9_11" function="internal">
        <lane id=":9_11_0" index="0" speed="8.00" length="5.93" shape="-7.20,-1.60 -3.35,-1.05 -1.60,0.00"/>
    </edge>
    <edge id=":9_15" function="internal">
        <lane id=":9_15_0" index="0" speed="8.00" length="8.26" shape="-1.60,0.00 -0.60,0.60 1.05,3.35 1.60,7.20"/>
    </edge>

    <edge id="1-7" from="1" to="7" priority="-1" length="100.00">
        <lane id="1-7_0" index="0" speed="13.89" length="100.00" shape="-201.60,100.00 -201.60,7.20"/>
    </edge>
    <edge id="10-11" from="10" to="11" priority="-1" length="100.00">
        <lane id="10-11_0" index="0" speed="13.89" length="100.00" shape="107.20,-1.60 192.80,-1.60"/>
    </edge>
    <edge id="10-16" from="10" to="16" priority="-1" length="100.00">
        <lane id="10-16_0" index="0" speed="13.89" length="100.00" shape="98.40,-7.20 98.40,-100.00"/>
    </edge>
    <edge id="10-4" from="10" to="4" priority="-1" length="100.00">
        <lane id="10-4_0" index="0" speed="13.89" length="100.00" shape="101.60,7.20 101.60,100.00"/>
    </edge>
    <edge id="10-9" from="10" to="9" priority="-1" length="100.00">
        <lane id="10-9_0" index="0" speed="13.89" length="100.00" shape="92.80,1.60 7.20,1.60"/>
    </edge>
    <edge id="11-10" from="11" to="10" priority="-1" length="100.00">
        <lane id="11-10_0" index="0" speed="13.89" length="100.00" shape="192.80,1.60 107.20,1.60"/>
    </edge>
    <edge id="11-12" from="11" to="12" priority="-1" length="100.00">
        <lane id="11-12_0" index="0" speed="13.89" length="100.00" shape="207.20,-1.60 300.00,-1.60"/>
    </edge>
    <edge id="11-17" from="11" to="17" priority="-1" length="100.00">
        <lane id="11-17_0" index="0" speed="13.89" length="100.00" shape="198.40,-7.20 198.40,-100.00"/>
    </edge>
    <edge id="11-5" from="11" to="5" priority="-1" length="100.00">
        <lane id="11-5_0" index="0" speed="13.89" length="100.00" shape="201.60,7.20 201.60,100.00"/>
    </edge>
    <edge id="12-11" from="12" to="11" priority="-1" length="100.00">
        <lane id="12-11_0" index="0" speed="13.89" length="100.00" shape="300.00,1.60 207.20,1.60"/>
    </edge>
    <edge id="13-7" from="13" to="7" priority="-1" length="100.00">
        <lane id="13-7_0" index="0" speed="13.89" length="100.00" shape="-198.40,-100.00 -198.40,-7.20"/>
    </edge>
    <edge id="14-8" from="14" to="8" priority="-1" length="100.00">
        <lane id="14-8_0" index="0" speed="13.89" length="100.00" shape="-98.40,-100.00 -98.40,-7.20"/>
    </edge>
    <edge id="15-9" from="15" to="9" priority="-1" length="100.00">
        <lane id="15-9_0" index="0" speed="13.89" length="100.00" shape="1.60,-100.00 1.60,-7.20"/>
    </edge>
    <edge id="16-10" from="16" to="10" priority="-1" length="100.00">
        <lane id="16-10_0" index="0" speed="13.89" length="100.00" shape="101.60,-100.00 101.60,-7.20"/>
    </edge>
    <edge id="17-11" from="17" to="11" priority="-1" length="100.00">
        <lane id="17-11_0" index="0" speed="13.89" length="100.00" shape="201.60,-100.00 201.60,-7.20"/>
    </edge>
    <edge id="2-8" from="2" to="8" priority="-1" length="100.00">
        <lane id="2-8_0" index="0" speed="13.89" length="100.00" shape="-101.60,100.00 -101.60,7.20"/>
    </edge>
    <edge id="3-9" from="3" to="9" priority="-1" length="100.00">
        <lane id="3-9_0" index="0" speed="13.89" length="100.00" shape="-1.60,100.00 -1.60,7.20"/>
    </edge>
    <edge id="4-10" from="4" to="10" priority="-1" length="100.00">
        <lane id="4-10_0" index="0" speed="13.89" length="100.00" shape="98.40,100.00 98.40,7.20"/>
    </edge>
    <edge id="5-11" from="5" to="11" priority="-1" length="100.00">
        <lane id="5-11_0" index="0" speed="13.89" length="100.00" shape="198.40,100.00 198.40,7.20"/>
    </edge>
    <edge id="6-7" from="6" to="7" priority="-1" length="100.00">
        <lane id="6-7_0" index="0" speed="13.89" length="100.00" shape="-300.00,-1.60 -207.20,-1.60"/>
    </edge>
    <edge id="7-1" from="7" to="1" priority="-1" length="100.00">
        <lane id="7-1_0" index="0" speed="13.89" length="100.00" shape="-198.40,7.20 -198.40,100.00"/>
    </edge>
    <edge id="7-13" from="7" to="13" priority="-1" length="100.00">
        <lane id="7-13_0" index="0" speed="13.89" length="100.00" shape="-201.60,-7.20 -201.60,-100.00"/>
    </edge>
    <edge id="7-6" from="7" to="6" priority="-1" length="100.00">
        <lane id="7-6_0" index="0" speed="13.89" length="100.00" shape="-207.20,1.60 -300.00,1.60"/>
    </edge>
    <edge id="7-8" from="7" to="8" priority="-1" length="100.00">
        <lane id="7-8_0" index="0" speed="13.89" length="100.00" shape="-192.80,-1.60 -107.20,-1.60"/>
    </edge>
    <edge id="8-14" from="8" to="14" priority="-1" length="100.00">
        <lane id="8-14_0" index="0" speed="13.89" length="100.00" shape="-101.60,-7.20 -101.60,-100.00"/>
    </edge>
    <edge id="8-2" from="8" to="2" priority="-1" length="100.00">
        <lane id="8-2_0" index="0" speed="13.89" length="100.00" shape="-98.40,7.20 -98.40,100.00"/>
    </edge>
    <edge id="8-7" from="8" to="7" priority="-1" length="100.00">
        <lane id="8-7_0" index="0" speed="13.89" length="100.00" shape="-107.20,1.60 -192.80,1.60"/>
    </edge>
    <edge id="8-9" from="8" to="9" priority="-1" length="100.00">
        <lane id="8-9_0" index="0" speed="13.89" length="100.00" shape="-92.80,-1.60 -7.20,-1.60"/>
    </edge>
    <edge id="9-10" from="9" to="10" priority="-1" length="100.00">
        <lane id="9-10_0" index="0" speed="13.89" length="100.00" shape="7.20,-1.60 92.80,-1.60"/>
    </edge>
    <edge id="9-15" from="9" to="15" priority="-1" length="100.00">
        <lane id="9-15_0" index="0" speed="13.89" length="100.00" shape="-1.60,-7.20 -1.60,-100.00"/>
    </edge>
    <edge id="9-3" from="9" to="3" priority="-1" length="100.00">
        <lane id="9-3_0" index="0" speed="13.89" length="100.00" shape="1.60,7.20 1.60,100.00"/>
    </edge>
    <edge id="9-8" from="9" to="8" priority="-1" length="100.00">
        <lane id="9-8_0" index="0" speed="13.89" length="100.00" shape="-7.20,1.60 -92.80,1.60"/>
    </edge>

    <tlLogic id="10" type="static" programID="0" offset="0">
        <phase duration="50" state="GGgrrrGGgrrr"/>
        <phase duration="3"  state="yyyrrryyyrrr"/>
        <phase duration="50" state="rrrGGgrrrGGg"/>
        <phase duration="3"  state="rrryyyrrryyy"/>
    </tlLogic>
    <tlLogic id="11" type="static" programID="0" offset="0">
        <phase duration="50" state="GGgrrrGGgrrr"/>
        <phase duration="3"  state="yyyrrryyyrrr"/>
        <phase duration="50" state="rrrGGgrrrGGg"/>
        <phase duration="3"  state="rrryyyrrryyy"/>
    </tlLogic>
    <tlLogic id="7" type="static" programID="0" offset="0">
        <phase duration="50" state="GGgrrrGGgrrr"/>
        <phase duration="3"  state="yyyrrryyyrrr"/>
        <phase duration="50" state="rrrGGgrrrGGg"/>
        <phase duration="3"  state="rrryyyrrryyy"/>
    </tlLogic>
    <tlLogic id="8" type="static" programID="0" offset="0">
        <phase duration="50" state="GGgrrrGGgrrr"/>
        <phase duration="3"  state="yyyrrryyyrrr"/>
        <phase duration="50" state="rrrGGgrrrGGg"/>
        <phase duration="3"  state="rrryyyrrryyy"/>
    </tlLogic>
    <tlLogic id="9" type="static" programID="0" offset="0">
        <phase duration="50" state="GGgrrrGGgrrr"/>
        <phase duration="3"  state="yyyrrryyyrrr"/>
        <phase duration="50" state="rrrGGgrrrGGg"/>
        <phase duration="3"  state="rrryyyrrryyy"/>
    </tlLogic>

    <junction id="1" type="dead_end" x="-200.00" y="100.00" incLanes="7-1_0" intLanes="" shape="-200.00,100.00 -196.80,100.00 -200.00,100.00"/>
    <junction id="10" type="traffic_light" x="100.00" y="0.00" incLanes="4-10_0 11-10_0 16-10_0 9-10_0" intLanes=":10_0_0 :10_1_0 :10_12_0 :10_3_0 :10_4_0 :10_13_0 :10_6_0 :10_7_0 :10_14_0 :10_9_0 :10_10_0 :10_15_0" shape="96.80,7.20 103.20,7.20 103.64,4.98 104.20,4.20 104.98,3.64 105.98,3.31 107.20,3.20 107.20,-3.20 104.98,-3.64 104.20,-4.20 103.64,-4.98 103.31,-5.98 103.20,-7.20 96.80,-7.20 96.36,-4.98 95.80,-4.20 95.02,-3.64 94.02,-3.31 92.80,-3.20 92.80,3.20 95.02,3.64 95.80,4.20 96.36,4.98 96.69,5.98">
        <request index="0"  response="000000000000" foes="000100010000" cont="0"/>
        <request index="1"  response="100000100000" foes="111100110000" cont="0"/>
        <request index="2"  response="100011100000" foes="110011110000" cont="1"/>
        <request index="3"  response="000010000000" foes="100010000000" cont="0"/>
        <request index="4"  response="000110000111" foes="100110000111" cont="0"/>
        <request index="5"  response="011110000110" foes="011110000110" cont="1"/>
        <request index="6"  response="000000000000" foes="010000000100" cont="0"/>
        <request index="7"  response="100000100000" foes="110000111100" cont="0"/>
        <request index="8"  response="100000100011" foes="110000110011" cont="1"/>
        <request index="9"  response="000000000010" foes="000000100010" cont="0"/>
        <request index="10" response="000111000110" foes="000111100110" cont="0"/>
        <request index="11" response="000110011110" foes="000110011110" cont="1"/>
    </junction>
    <junction id="11" type="traffic_light" x="200.00" y="0.00" incLanes="5-11_0 12-11_0 17-11_0 10-11_0" intLanes=":11_0_0 :11_1_0 :11_12_0 :11_3_0 :11_4_0 :11_13_0 :11_6_0 :11_7_0 :11_14_0 :11_9_0 :11_10_0 :11_15_0" shape="196.80,7.20 203.20,7.20 203.64,4.98 204.20,4.20 204.98,3.64 205.98,3.31 207.20,3.20 207.20,-3.20 204.98,-3.64 204.20,-4.20 203.64,-4.98 203.31,-5.98 203.20,-7.20 196.80,-7.20 196.36,-4.98 195.80,-4.20 195.02,-3.64 194.02,-3.31 192.80,-3.20 192.80,3.20 195.02,3.64 195.80,4.20 196.36,4.98 196.69,5.98">
        <request index="0"  response="000000000000" foes="000100010000" cont="0"/>
        <request index="1"  response="100000100000" foes="111100110000" cont="0"/>
        <request index="2"  response="100011100000" foes="110011110000" cont="1"/>
        <request index="3"  response="000010000000" foes="100010000000" cont="0"/>
        <request index="4"  response="000110000111" foes="100110000111" cont="0"/>
        <request index="5"  response="011110000110" foes="011110000110" cont="1"/>
        <request index="6"  response="000000000000" foes="010000000100" cont="0"/>
        <request index="7"  response="100000100000" foes="110000111100" cont="0"/>
        <request index="8"  response="100000100011" foes="110000110011" cont="1"/>
        <request index="9"  response="000000000010" foes="000000100010" cont="0"/>
        <request index="10" response="000111000110" foes="000111100110" cont="0"/>
        <request index="11" response="000110011110" foes="000110011110" cont="1"/>
    </junction>
    <junction id="12" type="dead_end" x="300.00" y="0.00" incLanes="11-12_0" intLanes="" shape="300.00,0.00 300.00,-3.20 300.00,0.00"/>
    <junction id="13" type="dead_end" x="-200.00" y="-100.00" incLanes="7-13_0" intLanes="" shape="-200.00,-100.00 -203.20,-100.00 -200.00,-100.00"/>
    <junction id="14" type="dead_end" x="-100.00" y="-100.00" incLanes="8-14_0" intLanes="" shape="-100.00,-100.00 -103.20,-100.00 -100.00,-100.00"/>
    <junction id="15" type="dead_end" x="0.00" y="-100.00" incLanes="9-15_0" intLanes="" shape="0.00,-100.00 -3.20,-100.00 0.00,-100.00"/>
    <junction id="16" type="dead_end" x="100.00" y="-100.00" incLanes="10-16_0" intLanes="" shape="100.00,-100.00 96.80,-100.00 100.00,-100.00"/>
    <junction id="17" type="dead_end" x="200.00" y="-100.00" incLanes="11-17_0" intLanes="" shape="200.00,-100.00 196.80,-100.00 200.00,-100.00"/>
    <junction id="2" type="dead_end" x="-100.00" y="100.00" incLanes="8-2_0" intLanes="" shape="-100.00,100.00 -96.80,100.00 -100.00,100.00"/>
    <junction id="3" type="dead_end" x="0.00" y="100.00" incLanes="9-3_0" intLanes="" shape="0.00,100.00 3.20,100.00 0.00,100.00"/>
    <junction id="4" type="dead_end" x="100.00" y="100.00" incLanes="10-4_0" intLanes="" shape="100.00,100.00 103.20,100.00 100.00,100.00"/>
    <junction id="5" type="dead_end" x="200.00" y="100.00" incLanes="11-5_0" intLanes="" shape="200.00,100.00 203.20,100.00 200.00,100.00"/>
    <junction id="6" type="dead_end" x="-300.00" y="0.00" incLanes="7-6_0" intLanes="" shape="-300.00,0.00 -300.00,3.20 -300.00,0.00"/>
    <junction id="7" type="traffic_light" x="-200.00" y="0.00" incLanes="1-7_0 8-7_0 13-7_0 6-7_0" intLanes=":7_0_0 :7_1_0 :7_12_0 :7_3_0 :7_4_0 :7_13_0 :7_6_0 :7_7_0 :7_14_0 :7_9_0 :7_10_0 :7_15_0" shape="-203.20,7.20 -196.80,7.20 -196.36,4.98 -195.80,4.20 -195.02,3.64 -194.02,3.31 -192.80,3.20 -192.80,-3.20 -195.02,-3.64 -195.80,-4.20 -196.36,-4.98 -196.69,-5.98 -196.80,-7.20 -203.20,-7.20 -203.64,-4.98 -204.20,-4.20 -204.98,-3.64 -205.98,-3.31 -207.20,-3.20 -207.20,3.20 -204.98,3.64 -204.20,4.20 -203.64,4.98 -203.31,5.98">
        <request index="0"  response="000000000000" foes="000100010000" cont="0"/>
        <request index="1"  response="100000100000" foes="111100110000" cont="0"/>
        <request index="2"  response="100011100000" foes="110011110000" cont="1"/>
        <request index="3"  response="000010000000" foes="100010000000" cont="0"/>
        <request index="4"  response="000110000111" foes="100110000111" cont="0"/>
        <request index="5"  response="011110000110" foes="011110000110" cont="1"/>
        <request index="6"  response="000000000000" foes="010000000100" cont="0"/>
        <request index="7"  response="100000100000" foes="110000111100" cont="0"/>
        <request index="8"  response="100000100011" foes="110000110011" cont="1"/>
        <request index="9"  response="000000000010" foes="000000100010" cont="0"/>
        <request index="10" response="000111000110" foes="000111100110" cont="0"/>
        <request index="11" response="000110011110" foes="000110011110" cont="1"/>
    </junction>
    <junction id="8" type="traffic_light" x="-100.00" y="0.00" incLanes="2-8_0 9-8_0 14-8_0 7-8_0" intLanes=":8_0_0 :8_1_0 :8_12_0 :8_3_0 :8_4_0 :8_13_0 :8_6_0 :8_7_0 :8_14_0 :8_9_0 :8_10_0 :8_15_0" shape="-103.20,7.20 -96.80,7.20 -96.36,4.98 -95.80,4.20 -95.02,3.64 -94.02,3.31 -92.80,3.20 -92.80,-3.20 -95.02,-3.64 -95.80,-4.20 -96.36,-4.98 -96.69,-5.98 -96.80,-7.20 -103.20,-7.20 -103.64,-4.98 -104.20,-4.20 -104.98,-3.64 -105.98,-3.31 -107.20,-3.20 -107.20,3.20 -104.98,3.64 -104.20,4.20 -103.64,4.98 -103.31,5.98">
        <request index="0"  response="000000000000" foes="000100010000" cont="0"/>
        <request index="1"  response="100000100000" foes="111100110000" cont="0"/>
        <request index="2"  response="100011100000" foes="110011110000" cont="1"/>
        <request index="3"  response="000010000000" foes="100010000000" cont="0"/>
        <request index="4"  response="000110000111" foes="100110000111" cont="0"/>
        <request index="5"  response="011110000110" foes="011110000110" cont="1"/>
        <request index="6"  response="000000000000" foes="010000000100" cont="0"/>
        <request index="7"  response="100000100000" foes="110000111100" cont="0"/>
        <request index="8"  response="100000100011" foes="110000110011" cont="1"/>
        <request index="9"  response="000000000010" foes="000000100010" cont="0"/>