<?xml version="1.0" encoding="UTF-8"?>

<!-- generated on lun 04 mai 2020 15:44:43 CEST by Eclipse SUMO netedit Version 1.2.0
<configuration xmlns:xsi="http://www.w3.org/2001/XMLSchema-instance" xsi:noNamespaceSchemaLocation="http://sumo.dlr.de/xsd/netconvertConfiguration.xsd">

    <input>
        <sumo-net-file value="/home/cyril/TFE/PDITSCS/sumo_sim/arterial.net.xml"/>
    </input>

    <output>
        <output-file value="/home/cyril/TFE/PDITSCS/sumo_sim/arterial.net.xml"/>
    </output>

    <processing>
        <geometry.max-grade.fix value="false"/>
        <offset.disable-normalization value="true"/>
        <lefthand value="false"/>
    </processing>

    <junctions>
        <no-turnarounds value="true"/>
        <junctions.corner-detail value="5"/>
        <junctions.limit-turn-speed value="5.5"/>
        <rectangular-lane-cut value="false"/>
    </junctions>

    <pedestrian>
        <walkingareas value="false"/>
    </pedestrian>

</configuration>
-->

<net version="1.1" junctionCornerDetail="5" limitTurnSpeed="5.50" xmlns:xsi="http://www.w3.org/2001/XMLSchema-instance" xsi:noNamespaceSchemaLocation="http://sumo.dlr.de/xsd/net_file.xsd">

    <location netOffset="0.00,0.00" convBoundary="-300.00,-100.00,300.00,100.00" origBoundary="-10000000000.00,-10000000000.00,10000000000.00,10000000000.00" projParameter="!"/>

    <edge id=":12_0" function="internal">
        <lane id=":12_0_0" index="0" speed="6.51" length="9.03" shape="98.40,7.20 98.05,4.75 97.00,3.00 95.25,1.95 92.80,1.60"/>
    </edge>
    <edge id=":12_1" function="internal">
        <lane id=":12_1_0" index="0" speed="13.89" length="14.40" shape="98.40,7.20 98.40,-7.20"/>
    </edge>
    <edge id=":12_2" function="internal">
        <lane id=":12_2_0" index="0" speed="8.00" length="5.93" shape="98.40,7.20 98.95,3.35 100.00,1.60"/>
    </edge>
    <edge id=":12_12" function="internal">
        <lane id=":12_12_0" index="0" speed="8.00" length="8.26" shape="100.00,1.60 100.60,0.60 103.35,-1.05 107.20,-1.60"/>
    </edge>
    <edge id=":12_3" function="internal">
        <lane id=":12_3_0" index="0" speed="6.51" length="9.03" shape="107.20,1.60 104.75,1.95 103.00,3.00 101.95,4.75 101.60,7.20"/>
    </edge>
    <edge id=":12_4" function="internal">
        <lane id=":12_4_0" index="0" speed="13.89" length="14.40" shape="107.20,1.60 92.80,1.60"/>
    </edge>
    <edge id=":12_5" function="internal">
        <lane id=":12_5_0" index="0" speed="8.00" length="5.93" shape="107.20,1.60 103.35,1.05 101.60,-0.00"/>
    </edge>
    <edge id=":12_13" function="internal">
        <lane id=":12_13_0" index="0" speed="8.00" length="8.26" shape="101.60,-0.00 100.60,-0.60 98.95,-3.35 98.40,-7.20"/>
    </edge>
    <edge id=":12_6" function="internal">
        <lane id=":12_6_0" index="0" speed="6.51" length="9.03" shape="101.60,-7.20 101.95,-4.75 103.00,-3.00 104.75,-1.95 107.20,-1.60"/>
    </edge>
    <edge id=":12_7" function="internal">
        <lane id=":12_7_0" index="0" speed="13.89" length="14.40" shape="101.60,-7.20 101.60,7.20"/>
    </edge>
    <edge id=":12_8" function="internal">
        <lane id=":12_8_0" index="0" speed="8.00" length="5.93" shape="101.60,-7.20 101.05,-3.35 100.00,-1.60"/>
    </edge>
    <edge id=":12_14" function="internal">
        <lane id=":12_14_0" index="0" speed="8.00" length="8.26" shape="100.00,-1.60 99.40,-0.60 96.65,1.05 92.80,1.60"/>
    </edge>
    <edge id=":12_9" function="internal">
        <lane id=":12_9_0" index="0" speed="6.51" length="9.03" shape="92.80,-1.60 95.25,-1.95 97.00,-3.00 98.05,-4.75 98.40,-7.20"/>
    </edge>
    <edge id=":12_10" function="internal">
        <lane id=":12_10_0" index="0" speed="13.89" length="14.40" shape="92.80,-1.60 107.20,-1.60"/>
    </edge>
    <edge id=":12_11" function="internal">
        <lane id=":12_11_0" index="0" speed="8.00" length="5.93" shape="92.80,-1.60 96.65,-1.05 98.40,0.00"/>
    </edge>
    <edge id=":12_15" function="internal">
        <lane id=":12_15_0" index="0" speed="8.00" length="8.26" shape="98.40,0.00 99.40,0.60 101.05,3.35 101.60,7.20"/>
    </edge>
    <edge id=":15_0" function="internal">
        <lane id=":15_0_0" index="0" speed="6.51" length="9.03" shape="198.40,7.20 198.05,4.75 197.00,3.00 195.25,1.95 192.80,1.60"/>
    </edge>
    <edge id=":15_1" function="internal">
        <lane id=":15_1_0" index="0" speed="13.89" length="14.40" shape="198.40,7.20 198.40,-7.20"/>
    </edge>
    <edge id=":15_2" function="internal">
        <lane id=":15_2_0" index="0" speed="8.00" length="5.93" shape="198.40,7.20 198.95,3.35 200.00,1.60"/>
    </edge>
    <edge id=":15_12" function="internal">
        <lane id=":15_12_0" index="0" speed="8.00" length="8.26" shape="200.00,1.60 200.60,0.60 203.35,-1.05 207.20,-1.60"/>
    </edge>
    <edge id=":15_3" function="internal">
        <lane id=":15_3_0" index="0" speed="6.51" length="9.03" shape="207.20,1.60 204.75,1.95 203.00,3.00 201.95,4.75 201.60,7.20"/>
    </edge>
    <edge id=":15_4" function="internal">
        <lane id=":15_4_0" index="0" speed="13.89" length="14.40" shape="207.20,1.60 192.80,1.60"/>
    </edge>
    <edge id=":15_5" function="internal">
        <lane id=":15_5_0" index="0" speed="8.00" length="5.93" shape="207.20,1.60 203.35,1.05 201.60,-0.00"/>
    </edge>
    <edge id=":15_13" function="internal">
        <lane id=":15_13_0" index="0" speed="8.00" length="8.26" shape="201.60,-0.00 200.60,-0.60 198.95,-3.35 198.40,-7.20"/>
    </edge>
    <edge id=":15_6" function="internal">
        <lane id=":15_6_0" index="0" speed="6.51" length="9.03" shape="201.60,-7.20 201.95,-4.75 203.00,-3.00 204.75,-1.95 207.20,-1.60"/>
    </edge>
    <edge id=":15_7" function="internal">
        <lane id=":15_7_0" index="0" speed="13.89" length="14.40" shape="201.60,-7.20 201.60,7.20"/>
    </edge>
    <edge id=":15_8" function="internal">
        <lane id=":15_8_0" index="0" speed="8.00" length="5.93" shape="201.60,-7.20 201.05,-3.35 200.00,-1.60"/>
    </edge>
    <edge id=":15_14" function="internal">
        <lane id=":15_14_0" index="0" speed="8.00" length="8.26" shape="200.00,-1.60 199.40,-0.60 196.65,1.05 192.80,1.60"/>
    </edge>
    <edge id=":15_9" function="internal">
        <lane id=":15_9_0" index="0" speed="6.51" length="9.03" shape="192.80,-1.60 195.25,-1.95 197.00,-3.00 198.05,-4.75 198.40,-7.20"/>
    </edge>
    <edge id=":15_10" function="internal">
        <lane id=":15_10_0" index="0" speed="13.89" length="14.40" shape="192.80,-1.60 207.20,-1.60"/>
    </edge>
    <edge id=":15_11" function="internal">
        <lane id=":15_11_0" index="0" speed="8.00" length="5.93" shape="192.80,-1.60 196.65,-1.05 198.40,0.00"/>
    </edge>
    <edge id=":15_15" function="internal">
        <lane id=":15_15_0" index="0" speed="8.00" length="8.26" shape="198.40,0.00 199.40,0.60 201.05,3.35 201.60,7.20"/>
    </edge>
    <edge id=":3_0" function="internal">
        <lane id=":3_0_0" index="0" speed="6.51" length="9.03" shape="-201.60,7.20 -201.95,4.75 -203.00,3.00 -204.75,1.95 -207.20,1.60"/>
    </edge>
    <edge id=":3_1" function="internal">
        <lane id=":3_1_0" index="0" speed="13.89" length="14.40" shape="-201.60,7.20 -201.60,-7.20"/>
    </edge>
    <edge id=":3_2" function="internal">
        <lane id=":3_2_0" index="0" speed="8.00" length="5.93" shape="-201.60,7.20 -201.05,3.35 -200.00,1.60"/>
    </edge>
    <edge id=":3_12" function="internal">
        <lane id=":3_12_0" index="0" speed="8.00" length="8.26" shape="-200.00,1.60 -199.40,0.60 -196.65,-1.05 -192.80,-1.60"/>
    </edge>
    <edge id=":3_3" function="internal">
        <lane id=":3_3_0" index="0" speed="6.51" length="9.03" shape="-192.80,1.60 -195.25,1.95 -197.00,3.00 -198.05,4.75 -198.40,7.20"/>
    </edge>
    <edge id=":3_4" function="internal">
        <lane id=":3_4_0" index="0" speed="13.89" length="14.40" shape="-192.80,1.60 -207.20,1.60"/>
    </edge>
    <edge id=":3_5" function="internal">
        <lane id=":3_5_0" index="0" speed="8.00" length="5.93" shape="-192.80,1.60 -196.65,1.05 -198.40,-0.00"/>
    </edge>
    <edge id=":3_13" function="internal">
        <lane id=":3_13_0" index="0" speed="8.00" length="8.26" shape="-198.40,-0.00 -199.40,-0.60 -201.05,-3.35 -201.60,-7.20"/>
    </edge>
    <edge id=":3_6" function="internal">
        <lane id=":3_6_0" index="0" speed="6.51" length="9.03" shape="-198.40,-7.20 -198.05,-4.75 -197.00,-3.00 -195.25,-1.95 -192.80,-1.60"/>
    </edge>
    <edge id=":3_7" function="internal">
        <lane id=":3_7_0" index="0" speed="13.89" length="14.40" shape="-198.40,-7.20 -198.40,7.20"/>
    </edge>
    <edge id=":3_8" function="internal">
        <lane id=":3_8_0" index="0" speed="8.00" length="5.93" shape="-198.40,-7.20 -198.95,-3.35 -200.00,-1.60"/>
    </edge>
    <edge id=":3_14" function="internal">
        <lane id=":3_14_0" index="0" speed="8.00" length="8.26" shape="-200.00,-1.60 -200.60,-0.60 -203.35,1.05 -207.20,1.60"/>
    </edge>
    <edge id=":3_9" function="internal">
        <lane id=":3_9_0" index="0" speed="6.51" length="9.03" shape="-207.20,-1.60 -204.75,-1.95 -203.00,-3.00 -201.95,-4.75 -201.60,-7.20"/>
    </edge>
    <edge id=":3_10" function="internal">
        <lane id=":3_10_0" index="0" speed="13.89" length="14.40" shape="-207.20,-1.60 -192.80,-1.60"/>
    </edge>
    <edge id=":3_11" function="internal">
        <lane id=":3_11_0" index="0" speed="8.00" length="5.93" shape="-207.20,-1.60 -203.35,-1.05 -201.60,0.00"/>
    </edge>
    <edge id=":3_15" function="internal">
        <lane id=":3_15_0" index="0" speed="8.00" length="8.26" shape="-201.60,0.00 -200.60,0.60 -198.95,3.35 -198.40,7.20"/>
    </edge>
    <edge id=":6_0" function="internal">
        <lane id=":6_0_0" index="0" speed="6.51" length="9.03" shape="-101.60,7.20 -101.95,4.75 -103.00,3.00 -104.75,1.95 -107.20,1.60"/>
    </edge>
    <edge id=":6_1" function="internal">
        <lane id=":6_1_0" index="0" speed="13.89" length="14.40" shape="-101.60,7.20 -101.60,-7.20"/>
    </edge>
    <edge id=":6_2" function="internal">
        <lane id=":6_2_0" index="0" speed="8.00" length="5.93" shape="-101.60,7.20 -101.05,3.35 -100.00,1.60"/>
    </edge>
    <edge id=":6_12" function="internal">
        <lane id=":6_12_0" index="0" speed="8.00" length="8.26" shape="-100.00,1.60 -99.40,0.60 -96.65,-1.05 -92.80,-1.60"/>
    </edge>
    <edge id=":6_3" function="internal">
        <lane id=":6_3_0" index="0" speed="6.51" length="9.03" shape="-92.80,1.60 -95.25,1.95 -97.00,3.00 -98.05,4.75 -98.40,7.20"/>
    </edge>
    <edge id=":6_4" function="internal">
        <lane id=":6_4_0" index="0" speed="13.89" length="14.40" shape="-92.80,1.60 -107.20,1.60"/>
    </edge>
    <edge id=":6_5" function="internal">
        <lane id=":6_5_0" index="0" speed="8.00" length="5.93" shape="-92.80,1.60 -96.65,1.05 -98.40,-0.00"/>
    </edge>
    <edge id=":6_13" function="internal">
        <lane id=":6_13_0" index="0" speed="8.00" length="8.26" shape="-98.40,-0.00 -99.40,-0.60 -101.05,-3.35 -101.60,-7.20"/>
    </edge>
    <edge id=":6_6" function="internal">
        <lane id=":6_6_0" index="0" speed="6.51" length="9.03" shape="-98.40,-7.20 -98.05,-4.75 -97.00,-3.00 -95.25,-1.95 -92.80,-1.60"/>
    </edge>
    <edge id=":6_7" function="internal">
        <lane id=":6_7_0" index="0" speed="13.89" length="14.40" shape="-98.40,-7.20 -98.40,7.20"/>
    </edge>
    <edge id=":6_8" function="internal">
        <lane id=":6_8_0" index="0" speed="8.00" length="5.93" shape="-98.40,-7.20 -98.95,-3.35 -100.00,-1.60"/>
    </edge>
    <edge id=":6_14" function="internal">
        <lane id=":6_14_0" index="0" speed="8.00" length="8.26" shape="-100.00,-1.60 -100.60,-0.60 -103.35,1.05 -107.20,1.60"/>
    </edge>
    <edge id=":6_9" function="internal">
        <lane id=":6_9_0" index="0" speed="6.51" length="9.03" shape="-107.20,-1.60 -104.75,-1.95 -103.00,-3.00 -101.95,-4.75 -101.60,-7.20"/>
    </edge>
    <edge id=":6_10" function="internal">
        <lane id=":6_10_0" index="0" speed="13.89" length="14.40" shape="-107.20,-1.60 -92.80,-1.60"/>
    </edge>
    <edge id=":6_11" function="internal">
        <lane id=":6_11_0" index="0" speed="8.00" length="5.93" shape="-107.20,-1.60 -103.35,-1.05 -101.60,0.00"/>
    </edge>
    <edge id=":6_15" function="internal">
        <lane id=":6_15_0" index="0" speed="8.00" length="8.26" shape="-101.60,0.00 -100.60,0.60 -98.95,3.35 -98.40,7.20"/>
    </edge>
    <edge id=":9_0" function="internal">
        <lane id=":9_0_0" index="0" speed="6.51" length="9.03" shape="-1.60,7.20 -1.95,4.75 -3.00,3.00 -4.75,1.95 -7.20,1.60"/>
    </edge>
    <edge id=":9_1" function="internal">
        <lane id=":9_1_0" index="0" speed="13.89" length="14.40" shape="-1.60,7.20 -1.60,-7.20"/>
    </edge>
    <edge id=":9_2" function="internal">
        <lane id=":9_2_0" index="0" speed="8.00" length="5.93" shape="-1.60,7.20 -1.05,3.35 0.00,1.60"/>
    </edge>
    <edge id=":9_12" function="internal">
        <lane id=":9_12_0" index="0" speed="8.00" length="8.26" shape="0.00,1.60 0.60,0.60 3.35,-1.05 7.20,-1.60"/>
    </edge>
    <edge id=":9_3" function="internal">
        <lane id=":9_3_0" index="0" speed="6.51" length="9.03" shape="7.20,1.60 4.75,1.95 3.00,3.00 1.95,4.75 1.60,7.20"/>
    </edge>
    <edge id=":9_4" function="internal">
        <lane id=":9_4_0" index="0" speed="13.89" length="14.40" shape="7.20,1.60 -7.20,1.60"/>
    </edge>
    <edge id=":9_5" function="internal">
        <lane id=":9_5_0" index="0" speed="8.00" length="5.93" shape="7.20,1.60 3.35,1.05 1.60,-0.00"/>
    </edge>
    <edge id=":9_13" function="internal">
        <lane id=":9_13_0" index="0" speed="8.00" length="8.26" shape="1.60,-0.00 0.60,-0.60 -1.05,-3.35 -1.60,-7.20"/>
    </edge>
    <edge id=":9_6" function="internal">
        <lane id=":9_6_0" index="0" speed="6.51" length="9.03" shape="1.60,-7.20 1.95,-4.75 3.00,-3.00 4.75,-1.95 7.20,-1.60"/>
    </edge>
    <edge id=":9_7" function="internal">
        <lane id=":9_7_0" index="0" speed="13.89" length="14.40" shape="1.60,-7.20 1.60,7.20"/>
    </edge>
    <edge id=":9_8" function="internal">
        <lane id=":9_8_0" index="0" speed="8.00" length="5.93" shape="1.60,-7.20 1.05,-3.35 -0.00,-1.60"/>
    </edge>
    <edge id=":9_14" function="internal">
        <lane id=":9_14_0" index="0" speed="8.00" length="8.26" shape="-0.00,-1.60 -0.60,-0.60 -3.35,1.05 -7.20,1.60"/>
    </edge>
    <edge id=":9_9" function="internal">
        <lane id=":9_9_0" index="0" speed="6.51" length="9.03" shape="-7.20,-1.60 -4.75,-1.95 -3.00,-3.00 -1.95,-4.75 -1.60,-7.20"/>
    </edge>
    <edge id=":9_10" function="internal">
        <lane id=":9_10_0" index="0" speed="13.89" length="14.40" shape="-7.20,-1.60 7.20,-1.60"/>
    </edge>
    <edge id=":9_11" function="internal">
        <lane id=":9_11_0" index="0" speed="8.00" length="5.93" shape="-7.20,-1.60 -3.35,-1.05 -1.60,0.00"/>
    </edge>
    <edge id=":9_15" function="internal">
        <lane id=":9_15_0" index="0" speed="8.00" length="8.26" shape="-1.60,0.00 -0.60,0.60 1.05,3.35 1.60,7.20"/>
    </edge>

    <edge id="03" from="0" to="3" priority="-1" length="100.00">
        <lane id="03_0" index="0" speed="13.89" length="100.00" shape="-300.00,-1.60 -207.20,-1.60"/>
    </edge>
    <edge id="109" from="10" to="9" priority="-1" length="100.00">
        <lane id="109_0" index="0" speed="13.89" length="100.00" shape="-1.60,100.00 -1.60,7.20"/>
    </edge>
    <edge id="119" from="11" to="9" priority="-1" length="100.00">
        <lane id="119_0" index="0" speed="13.89" length="100.00" shape="1.60,-100.00 1.60,-7.20"/>
    </edge>
    <edge id="1213" from="12" to="13" priority="-1" length="100.00">
        <lane id="1213_0" index="0" speed="13.89" length="100.00" shape="101.60,7.20 101.60,100.00"/>
    </edge>
    <edge id="1214" from="12" to="14" priority="-1" length="100.00">
        <lane id="1214_0" index="0" speed="13.89" length="100.00" shape="98.40,-7.20 98.40,-100.00"/>
    </edge>
    <edge id="1215" from="12" to="15" priority="-1" length="100.00">
        <lane id="1215_0" index="0" speed="13.89" length="100.00" shape="107.20,-1.60 192.80,-1.60"/>
    </edge>
    <edge id="129" from="12" to="9" priority="-1" length="100.00">
        <lane id="129_0" index="0" speed="13.89" length="100.00" shape="92.80,1.60 7.20,1.60"/>
    </edge>
    <edge id="1312" from="13" to="12" priority="-1" length="100.00">
        <lane id="1312_0" index="0" speed="13.89" length="100.00" shape="98.40,100.00 98.40,7.20"/>
    </edge>
    <edge id="1412" from="14" to="12" priority="-1" length="100.00">
        <lane id="1412_0" index="0" speed="13.89" length="100.00" shape="101.60,-100.00 101.60,-7.20"/>
    </edge>
    <edge id="1512" from="15" to="12" priority="-1" length="100.00">
        <lane id="1512_0" index="0" speed="13.89" length="100.00" shape="192.80,1.60 107.20,1.60"/>
    </edge>
    <edge id="1516" from="15" to="16" priority="-1" length="100.00">
        <lane id="1516_0" index="0" speed="13.89" length="100.00" shape="201.60,7.20 201.60,100.00"/>
    </edge>
    <edge id="1517" from="15" to="17" priority="-1" length="100.00">
        <lane id="1517_0" index="0" speed="13.89" length="100.00" shape="198.40,-7.20 198.40,-100.00"/>
    </edge>
    <edge id="1518" from="15" to="18" priority="-1" length="100.00">
        <lane id="1518_0" index="0" speed="13.89" length="100.00" shape="207.20,-1.60 300.00,-1.60"/>
    </edge>
    <edge id="1615" from="16" to="15" priority="-1" length="100.00">
        <lane id="1615_0" index="0" speed="13.89" length="100.00" shape="198.40,100.00 198.40,7.20"/>
    </edge>
    <edge id="1715" from="17" to="15" priority="-1" length="100.00">
        <lane id="1715_0" index="0" speed="13.89" length="100.00" shape="201.60,-100.00 201.60,-7.20"/>
    </edge>
    <edge id="1815" from="18" to="15" priority="-1" length="100.00">
        <lane id="1815_0" index="0" speed="13.89" length="100.00" shape="300.00,1.60 207.20,1.60"/>
    </edge>
    <edge id="30" from="3" to="0" priority="-1" length="100.00">
        <lane id="30_0" index="0" speed="13.89" length="100.00" shape="-207.20,1.60 -300.00,1.60"/>
    </edge>
    <edge id="34" from="3" to="4" priority="-1" length="100.00">
        <lane id="34_0" index="0" speed="13.89" length="100.00" shape="-198.40,7.20 -198.40,100.00"/>
    </edge>
    <edge id="35" from="3" to="5" priority="-1" length="100.00">
        <lane id="35_0" index="0" speed="13.89" length="100.00" shape="-201.60,-7.20 -201.60,-100.00"/>
    </edge>
    <edge id="36" from="3" to="6" priority="-1" length="100.00">
        <lane id="36_0" index="0" speed="13.89" length="100.00" shape="-192.80,-1.60 -107.20,-1.60"/>
    </edge>
    <edge id="43" from="4" to="3" priority="-1" length="100.00">
        <lane id="43_0" index="0" speed="13.89" length="100.00" shape="-201.60,100.00 -201.60,7.20"/>
    </edge>
    <edge id="53" from="5" to="3" priority="-1" length="100.00">
        <lane id="53_0" index="0" speed="13.89" length="100.00" shape="-198.40,-100.00 -198.40,-7.20"/>
    </edge>
    <edge id="63" from="6" to="3" priority="-1" length="100.00">
        <lane id="63_0" index="0" speed="13.89" length="100.00" shape="-107.20,1.60 -192.80,1.60"/>
    </edge>
    <edge id="67" from="6" to="7" priority="-1" length="100.00">
        <lane id="67_0" index="0" speed="13.89" length="100.00" shape="-98.40,7.20 -98.40,100.00"/>
    </edge>
    <edge id="68" from="6" to="8" priority="-1" length="100.00">
        <lane id="68_0" index="0" speed="13.89" length="100.00" shape="-101.60,-7.20 -101.60,-100.00"/>
    </edge>
    <edge id="69" from="6" to="9" priority="-1" length="100.00">
        <lane id="69_0" index="0" speed="13.89" length="100.00" shape="-92.80,-1.60 -7.20,-1.60"/>
    </edge>
    <edge id="76" from="7" to="6" priority="-1" length="100.00">
        <lane id="76_0" index="0" speed="13.89" length="100.00" shape="-101.60,100.00 -101.60,7.20"/>
    </edge>
    <edge id="86" from="8" to="6" priority="-1" length="100.00">
        <lane id="86_0" index="0" speed="13.89" length="100.00" shape="-98.40,-100.00 -98.40,-7.20"/>
    </edge>
    <edge id="910" from="9" to="10" priority="-1" length="100.00">
        <lane id="910_0" index="0" speed="13.89" length="100.00" shape="1.60,7.20 1.60,100.00"/>
    </edge>
    <edge id="911" from="9" to="11" priority="-1" length="100.00">
        <lane id="911_0" index="0" speed="13.89" length="100.00" shape="-1.60,-7.20 -1.60,-100.00"/>
    </edge>
    <edge id="912" from="9" to="12" priority="-1" length="100.00">
        <lane id="912_0" index="0" speed="13.89" length="100.00" shape="7.20,-1.60 92.80,-1.60"/>
    </edge>
    <edge id="96" from="9" to="6" priority="-1" length="100.00">
        <lane id="96_0" index="0" speed="13.89" length="100.00" shape="-7.20,1.60 -92.80,1.60"/>
    </edge>

    <tlLogic id="12" type="static" programID="0" offset="0">
        <phase duration="50" state="GGgrrrGGgrrr"/>
        <phase duration="3"  state="yyyrrryyyrrr"/>
        <phase duration="50" state="rrrGGgrrrGGg"/>
        <phase duration="3"  state="rrryyyrrryyy"/>
    </tlLogic>
    <tlLogic id="15" type="static" programID="0" offset="0">
        <phase duration="50" state="GGgrrrGGgrrr"/>
        <phase duration="3"  state="yyyrrryyyrrr"/>
        <phase duration="50" state="rrrGGgrrrGGg"/>
        <phase duration="3"  state="rrryyyrrryyy"/>
    </tlLogic>
    <tlLogic id="3" type="static" programID="0" offset="0">
        <phase duration="50" state="GGgrrrGGgrrr"/>
        <phase duration="3"  state="yyyrrryyyrrr"/>
        <phase duration="50" state="rrrGGgrrrGGg"/>
        <phase duration="3"  state="rrryyyrrryyy"/>
    </tlLogic>
    <tlLogic id="6" type="static" programID="0" offset="0">
        <phase duration="50" state="GGgrrrGGgrrr"/>
        <phase duration="3"  state="yyyrrryyyrrr"/>
        <phase duration="50" state="rrrGGgrrrGGg"/>
        <phase duration="3"  state="rrryyyrrryyy"/>
    </tlLogic>
    <tlLogic id="9" type="static" programID="0" offset="0">
        <phase duration="50" state="GGgrrrGGgrrr"/>
        <phase duration="3"  state="yyyrrryyyrrr"/>
        <phase duration="50" state="rrrGGgrrrGGg"/>
        <phase duration="3"  state="rrryyyrrryyy"/>
    </tlLogic>

    <junction id="0" type="dead_end" x="-300.00" y="0.00" incLanes="30_0" intLanes="" shape="-300.00,0.00 -300.00,3.20 -300.00,0.00"/>
    <junction id="10" type="dead_end" x="0.00" y="100.00" incLanes="910_0" intLanes="" shape="0.00,100.00 3.20,100.00 0.00,100.00"/>
    <junction id="11" type="dead_end" x="0.00" y="-100.00" incLanes="911_0" intLanes="" shape="0.00,-100.00 -3.20,-100.00 0.00,-100.00"/>
    <junction id="12" type="traffic_light" x="100.00" y="0.00" incLanes="1312_0 1512_0 1412_0 912_0" intLanes=":12_0_0 :12_1_0 :12_12_0 :12_3_0 :12_4_0 :12_13_0 :12_6_0 :12_7_0 :12_14_0 :12_9_0 :12_10_0 :12_15_0" shape="96.80,7.20 103.20,7.20 103.64,4.98 104.20,4.20 104.98,3.64 105.98,3.31 107.20,3.20 107.20,-3.20 104.98,-3.64 104.20,-4.20 103.64,-4.98 103.31,-5.98 103.20,-7.20 96.80,-7.20 96.36,-4.98 95.80,-4.20 95.02,-3.64 94.02,-3.31 92.80,-3.20 92.80,3.20 95.02,3.64 95.80,4.20 96.36,4.98 96.69,5.98">
        <request index="0"  response="000000000000" foes="000100010000" cont="0"/>
        <request index="1"  response="100000100000" foes="111100110000" cont="0"/>
        <request index="2"  response="100011100000" foes="110011110000" cont="1"/>
        <request index="3"  response="000010000000" foes="100010000000" cont="0"/>
        <request index="4"  response="000110000111" foes="100110000111" cont="0"/>
        <request index="5"  response="011110000110" foes="011110000110" cont="1"/>
        <request index="6"  response="000000000000" foes="010000000100" cont="0"/>
        <request index="7"  response="100000100000" foes="110000111100" cont="0"/>
        <request index="8"  response="100000100011" foes="110000110011" cont="1"/>
        <request index="9"  response="000000000010" foes="000000100010" cont="0"/>
        <request index="10" response="000111000110" foes="000111100110" cont="0"/>
        <request index="11" response="000110011110" foes="000110011110" cont="1"/>
    </junction>
    <junction id="13" type="dead_end" x="100.00" y="100.00" incLanes="1213_0" intLanes="" shape="100.00,100.00 103.20,100.00 100.00,100.00"/>
    <junction id="14" type="dead_end" x="100.00" y="-100.00" incLanes="1214_0" intLanes="" shape="100.00,-100.00 96.80,-100.00 100.00,-100.00"/>
    <junction id="15" type="traffic_light" x="200.00" y="0.00" incLanes="1615_0 1815_0 1715_0 1215_0" intLanes=":15_0_0 :15_1_0 :15_12_0 :15_3_0 :15_4_0 :15_13_0 :15_6_0 :15_7_0 :15_14_0 :15_9_0 :15_10_0 :15_15_0" shape="196.80,7.20 203.20,7.20 203.64,4.98 204.20,4.20 204.98,3.64 205.98,3.31 207.20,3.20 207.20,-3.20 204.98,-3.64 204.20,-4.20 203.64,-4.98 203.31,-5.98 203.20,-7.20 196.80,-7.20 196.36,-4.98 195.80,-4.20 195.02,-3.64 194.02,-3.31 192.80,-3.20 192.80,3.20 195.02,3.64 195.80,4.20 196.36,4.98 196.69,5.98">
        <request index="0"  response="000000000000" foes="000100010000" cont="0"/>
        <request index="1"  response="100000100000" foes="111100110000" cont="0"/>
        <request index="2"  response="100011100000" foes="110011110000" cont="1"/>
        <request index="3"  response="000010000000" foes="100010000000" cont="0"/>
        <request index="4"  response="000110000111" foes="100110000111" cont="0"/>
        <request index="5"  response="011110000110" foes="011110000110" cont="1"/>
        <request index="6"  response="000000000000" foes="010000000100" cont="0"/>
        <request index="7"  response="100000100000" foes="110000111100" cont="0"/>
        <request index="8"  response="100000100011" foes="110000110011" cont="1"/>
        <request index="9"  response="000000000010" foes="000000100010" cont="0"/>
        <request index="10" response="000111000110" foes="000111100110" cont="0"/>
        <request index="11" response="000110011110" foes="000110011110" cont="1"/>
    </junction>
    <junction id="16" type="dead_end" x="200.00" y="100.00" incLanes="1516_0" intLanes="" shape="200.00,100.00 203.20,100.00 200.00,100.00"/>
    <junction id="17" type="dead_end" x="200.00" y="-100.00" incLanes="1517_0" intLanes="" shape="200.00,-100.00 196.80,-100.00 200.00,-100.00"/>
    <junction id="18" type="dead_end" x="300.00" y="0.00" incLanes="1518_0" intLanes="" shape="300.00,0.00 300.00,-3.20 300.00,0.00"/>
    <junction id="3" type="traffic_light" x="-200.00" y="0.00" incLanes="43_0 63_0 53_0 03_0" intLanes=":3_0_0 :3_1_0 :3_12_0 :3_3_0 :3_4_0 :3_13_0 :3_6_0 :3_7_0 :3_14_0 :3_9_0 :3_10_0 :3_15_0" shape="-203.20,7.20 -196.80,7.20 -196.36,4.98 -195.80,4.20 -195.02,3.64 -194.02,3.31 -192.80,3.20 -192.80,-3.20 -195.02,-3.64 -195.80,-4.20 -196.36,-4.98 -196.69,-5.98 -196.80,-7.20 -203.20,-7.20 -203.64,-4.98 -204.20,-4.20 -204.98,-3.64 -205.98,-3.31 -207.20,-3.20 -207.20,3.20 -204.98,3.64 -204.20,4.20 -203.64,4.98 -203.31,5.98">
        <request index="0"  response="000000000000" foes="000100010000" cont="0"/>
        <request index="1"  response="100000100000" foes="111100110000" cont="0"/>
        <request index="2"  response="100011100000" foes="110011110000" cont="1"/>
        <request index="3"  response="000010000000" foes="100010000000" cont="0"/>
        <request index="4"  response="000110000111" foes="100110000111" cont="0"/>
        <request index="5"  response="011110000110" foes="011110000110" cont="1"/>
        <request index="6"  response="000000000000" foes="010000000100" cont="0"/>
        <request index="7"  response="100000100000" foes="110000111100" cont="0"/>
        <request index="8"  response="100000100011" foes="110000110011" cont="1"/>
        <request index="9"  response="000000000010" foes="000000100010" cont="0"/>
        <request index="10" response="000111000110" foes="000111100110" cont="0"/>
        <request index="11" response="000110011110" foes="000110011110" cont="1"/>
    </junction>
    <junction id="4" type="dead_end" x="-200.00" y="100.00" incLanes="34_0" intLanes="" shape="-200.00,100.00 -196.80,100.00 -200.00,100.00"/>
    <junction id="5" type="dead_end" x="-200.00" y="-100.00" incLanes="35_0" intLanes="" shape="-200.00,-100.00 -203.20,-100.00 -200.00,-100.00"/>
    <junction id="6" type="traffic_light" x="-100.00" y="0.00" incLanes="76_0 96_0 86_0 36_0" intLanes=":6_0_0 :6_1_0 :6_12_0 :6_3_0 :6_4_0 :6_13_0 :6_6_0 :6_7_0 :6_14_0 :6_9_0 :6_10_0 :6_15_0" shape="-103.20,7.20 -96.80,7.20 -96.36,4.98 -95.80,4.20 -95.02,3.64 -94.02,3.31 -92.80,3.20 -92.80,-3.20 -95.02,-3.64 -95.80,-4.20 -96.36,-4.98 -96.69,-5.98 -96.80,-7.20 -103.20,-7.20 -103.64,-4.98 -104.20,-4.20 -104.98,-3.64 -105.98,-3.31 -107.20,-3.20 -107.20,3.20 -104.98,3.64 -104.20,4.20 -103.64,4.98 -103.31,5.98">
        <request index="0"  response="000000000000" foes="000100010000" cont="0"/>
        <request index="1"  response="100000100000" foes="111100110000" cont="0"/>
        <request index="2"  response="100011100000" foes="110011110000" cont="1"/>
        <request index="3"  response="000010000000" foes="100010000000" cont="0"/>
        <request index="4"  response="000110000111" foes="100110000111" cont="0"/>
        <request index="5"  response="011110000110" foes="011110000110" cont="1"/>
        <request index="6"  response="000000000000" foes="010000000100" cont="0"/>
        <request index="7"  response="100000100000" foes="110000111100" cont="0"/>
        <request index="8"  response="100000100011" foes="110000110011" cont="1"/>
        <request index="9"  response="000000000010" foes="000000100010" cont="0"/>
        <request index="10" response="000111000110" foes="000111100110" cont="0"/>
        <request index="11" response="000110011110" foes="000110011110" cont="1"/>
    </junction>
    <junction id="7" type="dead_end" x="-100.00" y="100.00" incLanes="67_0" intLanes="" shape="-100.00,100.00 -96.80,100.00 -100.00,100.00"/>