<routes>
    <vType id="car" accel="2.6" decel="4.5" sigma="0.5" maxSpeed="55.55" length="4.5"/>

    <route id="route0" edges="in_west out_north"/>
    <route id="route1" edges="in_west out_east"/>
    <route id="route2" edges="in_west out_south"/>
    <route id="route3" edges="in_north out_east"/>
    <route id="route4" edges="in_north out_south"/>
    <route id="route5" edges="in_north out_west"/>
    <route id="route6" edges="in_east out_south"/>
    <route id="route7" edges="in_east out_west"/>
    <route id="route8" edges="in_east out_north"/>
    <route id="route9" edges="in_south out_west"/>
    <route id="route10" edges="in_south out_north"/>
    <route id="route11" edges="in_south out_east"/>
    <vehicle id="0" type="car" route="route9" depart="0" color="0, 255, 0" departSpeed="max"/>
    <vehicle id="1" type="car" route="route8" depart="7" color="0, 255, 0" departSpeed="max"/>
    <vehicle id="2" type="car" route="route6" depart="9" color="0, 255, 0" departSpeed="max"/>
    <vehicle id="3" type="car" route="route4" depart="11" color="255, 0, 0" departSpeed="max"/>
    <vehicle id="4" type="car" route="route2" depart="27" color="0, 255, 0" departSpeed="max"/>
    <vehicle id="5" type="car" route="route10" depart="33" color="255, 0, 0" departSpeed="max"/>
    <vehicle id="6" type="car" route="route1" depart="37" color="255, 0, 0" departSpeed="max"/>
    <vehicle id="7" type="car" route="route2" depart="39" color="255, 0, 0" departSpeed="max"/>
    <vehicle id="8" type="car" route="route1" depart="49" color="0, 255, 0" departSpeed="max"/>
    <vehicle id="9" type="car" route="route1" depart="50" color="255, 0, 0" departSpeed="max"/>
    <vehicle id="10" type="car" route="route5" depart="51" color="255, 0, 0" departSpeed="max"/>
    <vehicle id="11" type="car" route="route3" depart="57" color="0, 255, 0" departSpeed="max"/>
    <vehicle id="12" type="car" route="route0" depart="58" color="255, 0, 0" departSpeed="max"/>
    <vehicle id="13" type="car" route="route3" depart="62" color="255, 0, 0" departSpeed="max"/>
    <vehicle id="14" type="car" route="route8" depart="64" color="0, 255, 0" departSpeed="max"/>
    <vehicle id="15" type="car" route="route3" depart="66" color="0, 255, 0" departSpeed="max"/>
    <vehicle id="16" type="car" route="route10" depart="66" color="255, 0, 0" departSpeed="max"/>
    <vehicle id="17" type="car" route="route1" depart="67" color="0, 255, 0" departSpeed="max"/>
    <vehicle id="18" type="car" route="route8" depart="77" color="0, 255, 0" departSpeed="max"/>
    <vehicle id="19" type="car" route="route6" depart="79" color="0, 255, 0" departSpeed="max"/>
    <vehicle id="20" type="car" route="route5" depart="83" color="0, 255, 0" departSpeed="max"/>
    <vehicle id="21" type="car" route="route3" depart="84" color="0, 255, 0" departSpeed="max"/>
    <vehicle id="22" type="car" route="route5" depart="86" color="255, 0, 0" departSpeed="max"/>
    <vehicle id="23" type="car" route="route1" depart="88" color="0, 255, 0" departSpeed="max"/>
    <vehicle id="24" type="car" route="route5" depart="89" color="255, 0, 0" departSpeed="max"/>
    <vehicle id="25" type="car" route="route6" depart="89" color="255, 0, 0" departSpeed="max"/>
    <vehicle id="26" type="car" route="route4" depart="91" color="0, 255, 0" departSpeed="max"/>
    <vehicle id="27" type="car" route="route9" depart="92" color="0, 255, 0" departSpeed="max"/>
    <vehicle id="28" type="car" route="route5" depart="102" color="255, 0, 0" departSpeed="max"/>
    <vehicle id="29" type="car" route="route2" depart="105" color="255, 0, 0" departSpeed="max"/>
    <vehicle id="30" type="car" route="route6" depart="105" color="255, 0, 0" departSpeed="max"/>
    <vehicle id="31" type="car" route="route8" depart="106" color="0, 255, 0" departSpeed="max"/>
    <vehicle id="32" type="car" route="route1" depart="108" color="0, 255, 0" departSpeed="max"/>
    <vehicle id="33" type="car" route="route11" depart="111" color="255, 0, 0" departSpeed="max"/>
    <vehicle id="34" type="car" route="route10" depart="112" color="0, 255, 0" departSpeed="max"/>
    <vehicle id="35" type="car" route="route3" depart="117" color="0, 255, 0" departSpeed="max"/>
    <vehicle id="36" type="car" route="route4" depart="134" color="0, 255, 0" departSpeed="max"/>
    <vehicle id="37" type="car" route="route6" depart="136" color="0, 255, 0" departSpeed="max"/>
    <vehicle id="38" type="car" route="route9" depart="137" color="255, 0, 0" departSpeed="max"/>
    <vehicle id="39" type="car" route="route4" depart="148" color="0, 255, 0" departSpeed="max"/>
    <vehicle id="40" type="car" route="route9" depart="150" color="0, 255, 0" departSpeed="max"/>
    <vehicle id="41" type="car" route="route7" depart="151" color="255, 0, 0" departSpeed="max"/>
    <vehicle id="42" type="car" route="route7" depart="152" color="0, 255, 0" departSpeed="max"/>
    <vehicle id="43" type="car" route="route1" depart="154" color="0, 255, 0" departSpeed="max"/>
    <vehicle id="44" type="car" route="route4" depart="163" color="255, 0, 0" departSpeed="max"/>
    <vehicle id="45" type="car" route="route10" depart="172" color="255, 0, 0" departSpeed="max"/>
    <vehicle id="46" type="car" route="route6" depart="179" color="255, 0, 0" departSpeed="max"/>
    <vehicle id="47" type="car" route="route6" depart="183" color="255, 0, 0" departSpeed="max"/>
    <vehicle id="48" type="car" route="route9" depart="184" color="0, 255, 0" departSpeed="max"/>
    <vehicle id="49" type="car" route="route9" depart="186" color="255, 0, 0" departSpeed="max"/>
    <vehicle id="50" type="car" route="route0" depart="200" color="0, 255, 0" departSpeed="max"/>
    <vehicle id="51" type="car" route="route8" depart="201" color="255, 0, 0" departSpeed="max"/>
    <vehicle id="52" type="car" route="route0" depart="205" color="255, 0, 0" departSpeed="max"/>
    <vehicle id="53" type="car" route="route3" depart="207" color="255, 0, 0" departSpeed="max"/>
    <vehicle id="54" type="car" route="route9" depart="208" color="255, 0, 0" departSpeed="max"/>
    <vehicle id="55" type="car" route="route8" depart="212" color="255, 0, 0" departSpeed="max"/>
    <vehicle id="56" type="car" route="route0" depart="214" color="255, 0, 0" departSpeed="max"/>
    <vehicle id="57" type="car" route="route7" depart="220" color="0, 255, 0" departSpeed="max"/>
    <vehicle id="58" type="car" route="route4" depart="222" color="0, 255, 0" departSpeed="max"/>
    <vehicle id="59" type="car" route="route7" depart="223" color="0, 255, 0" departSpeed="max"/>
    <vehicle id="60" type="car" route="route10" depart="223" color="255, 0, 0" departSpeed="max"/>
    <vehicle id="61" type="car" route="route11" depart="224" color="0, 255, 0" departSpeed="max"/>
    <vehicle id="62" type="car" route="route8" depart="227" color="255, 0, 0" departSpeed="max"/>
    <vehicle id="63" type="car" route="route1" depart="230" color="0, 255, 0" departSpeed="max"/>
    <vehicle id="64" type="car" route="route6" depart="231" color="0, 255, 0" departSpeed="max"/>
    <vehicle id="65" type="car" route="route2" depart="232" color="255, 0, 0" departSpeed="max"/>
    <vehicle id="66" type="car" route="route9" depart="240" color="0, 255, 0" departSpeed="max"/>
    <vehicle id="67" type="car" route="route9" depart="249" color="255, 0, 0" departSpeed="max"/>
    <vehicle id="68" type="car" route="route6" depart="257" color="255, 0, 0" departSpeed="max"/>
    <vehicle id="69" type="car" route="route0" depart="261" color="0, 255, 0" departSpeed="max"/>
    <vehicle id="70" type="car" route="route4" depart="268" color="0, 255, 0" departSpeed="max"/>
    <vehicle id="71" type="car" route="route2" depart="270" color="0, 255, 0" departSpeed="max"/>
    <vehicle id="72" type="car" route="route3" depart="273" color="0, 255, 0" departSpeed="max"/>
    <vehicle id="73" type="car" route="route11" depart="275" color="255, 0, 0" departSpeed="max"/>
    <vehicle id="74" type="car" route="route11" depart="278" color="255, 0, 0" departSpeed="max"/>
    <vehicle id="75" type="car" route="route8" depart="283" color="255, 0, 0" departSpeed="max"/>
    <vehicle id="76" type="car" route="route0" depart="288" color="0, 255, 0" departSpeed="max"/>
    <vehicle id="77" type="car" route="route4" depart="291" color="0, 255, 0" departSpeed="max"/>
    <vehicle id="78" type="car" route="route3" depart="293" color="255, 0, 0" departSpeed="max"/>
    <vehicle id="79" type="car" route="route11" depart="305" color="255, 0, 0" departSpeed="max"/>
    <vehicle id="80" type="car" route="route5" depart="312" color="0, 255, 0" departSpeed="max"/>
    <vehicle id="81" type="car" route="route3" depart="313" color="0, 255, 0" departSpeed="max"/>
    <vehicle id="82" type="car" route="route2" depart="319" color="255, 0, 0" departSpeed="max"/>
    <vehicle id="83" type="car" route="route10" depart="321" color="255, 0, 0" departSpeed="max"/>
    <vehicle id="84" type="car" route="route8" depart="323" color="255, 0, 0" departSpeed="max"/>
    <vehicle id="85" type="car" route="route0" depart="335" color="255, 0, 0" departSpeed="max"/>
    <vehicle id="86" type="car" route="route9" depart="335" color="0, 255, 0" departSpeed="max"/>
    <vehicle id="87" type="car" route="route4" depart="342" color="255, 0, 0" departSpeed="max"/>
    <vehicle id="88" type="car" route="route3" depart="343" color="0, 255, 0" departSpeed="max"/>
    <vehicle id="89" type="car" route="route9" depart="354" color="0, 255, 0" departSpeed="max"/>
    <vehicle id="90" type="car" route="route8" depart="355" color="0, 255, 0" departSpeed="max"/>
    <vehicle id="91" type="car" route="route10" depart="357" color="255, 0, 0" departSpeed="max"/>
    <vehicle id="92" type="car" route="route10" depart="368" color="255, 0, 0" departSpeed="max"/>
    <vehicle id="93" type="car" route="route0" depart="369" color="0, 255, 0" departSpeed="max"/>
    <vehicle id="94" type="car" route="route7" depart="369" color="255, 0, 0" departSpeed="max"/>
    <vehicle id="95" type="car" route="route5" depart="373" color="0, 255, 0" departSpeed="max"/>
    <vehicle id="96" type="car" route="route0" depart="375" color="0, 255, 0" departSpeed="max"/>
    <vehicle id="97" type="car" route="route1" depart="380" color="255, 0, 0" departSpeed="max"/>
    <vehicle id="98" type="car" route="route5" depart="383" color="0, 255, 0" departSpeed="max"/>
    <vehicle id="99" type="car" route="route2" depart="384" color="0, 255, 0" departSpeed="max"/>
    <vehicle id="100" type="car" route="route7" depart="385" color="255, 0, 0" departSpeed="max"/>
    <vehicle id="101" type="car" route="route0" depart="390" color="0, 255, 0" departSpeed="max"/>
    <vehicle id="102" type="car" route="route10" depart="392" color="0, 255, 0" departSpeed="max"/>
    <vehicle id="103" type="car" route="route8" depart="395" color="0, 255, 0" departSpeed="max"/>
    <vehicle id="104" type="car" route="route5" depart="397" color="0, 255, 0" departSpeed="max"/>
    <vehicle id="105" type="car" route="route3" depart="401" color="0, 255, 0" departSpeed="max"/>
    <vehicle id="106" type="car" route="route0" depart="406" color="255, 0, 0" departSpeed="max"/>
    <vehicle id="107" type="car" route="route1" depart="407" color="255, 0, 0" departSpeed="max"/>
    <vehicle id="108" type="car" route="route9" depart="411" color="255, 0, 0" departSpeed="max"/>
    <vehicle id="109" type="car" route="route10" depart="411" color="0, 255, 0" departSpeed="max"/>
    <vehicle id="110" type="car" route="route3" depart="414" color="255, 0, 0" departSpeed="max"/>
    <vehicle id="111" type="car" route="route6" depart="414" color="255, 0, 0" departSpeed="max"/>
    <vehicle id="112" type="car" route="route2" depart="416" color="255, 0, 0" departSpeed="max"/>
    <vehicle id="113" type="car" route="route3" depart="421" color="255, 0, 0" departSpeed="max"/>
    <vehicle id="114" type="car" route="route6" depart="421" color="0, 255, 0" departSpeed="max"/>
    <vehicle id="115" type="car" route="route8" depart="421" color="255, 0, 0" departSpeed="max"/>
    <vehicle id="116" type="car" route="route8" depart="433" color="255, 0, 0" departSpeed="max"/>
    <vehicle id="117" type="car" route="route9" depart="434" color="0, 255, 0" departSpeed="max"/>
    <vehicle id="118" type="car" route="route9" depart="448" color="255, 0, 0" departSpeed="max"/>
    <vehicle id="119" type="car" route="route11" depart="457" color="0, 255, 0" departSpeed="max"/>
    <vehicle id="120" type="car" route="route2" depart="462" color="255, 0, 0" departSpeed="max"/>
    <vehicle id="121" type="car" route="route9" depart="462" color="0, 255, 0" departSpeed="max"/>
    <vehicle id="122" type="car" route="route4" depart="465" color="255, 0, 0" departSpeed="max"/>
    <vehicle id="123" type="car" route="route10" depart="468" color="255, 0, 0" departSpeed="max"/>
    <vehicle id="124" type="car" route="route4" depart="472" color="0, 255, 0" departSpeed="max"/>
    <vehicle id="125" type="car" route="route8" depart="473" color="255, 0, 0" departSpeed="max"/>
    <vehicle id="126" type="car" route="route11" depart="473" color="255, 0, 0" departSpeed="max"/>
    <vehicle id="127" type="car" route="route6" depart="480" color="255, 0, 0" departSpeed="max"/>
    <vehicle id="128" type="car" route="route11" depart="482" color="255, 0, 0" departSpeed="max"/>
    <vehicle id="129" type="car" route="route6" depart="495" color="0, 255, 0" departSpeed="max"/>
    <vehicle id="130" type="car" route="route1" depart="501" color="255, 0, 0" departSpeed="max"/>
    <vehicle id="131" type="car" route="route3" depart="501" color="0, 255, 0" departSpeed="max"/>
    <vehicle id="132" type="car" route="route6" depart="501" color="0, 255, 0" departSpeed="max"/>
    <vehicle id="133" type="car" route="route4" depart="507" color="255, 0, 0" departSpeed="max"/>
    <vehicle id="134" type="car" route="route7" depart="507" color="255, 0, 0" departSpeed="max"/>
    <vehicle id="135" type="car" route="route11" depart="508" color="255, 0, 0" departSpeed="max"/>
    <vehicle id="136" type="car" route="route1" depart="511" color="255, 0, 0" departSpeed="max"/>
    <vehicle id="137" type="car" route="route9" depart="517" color="0, 255, 0" departSpeed="max"/>
    <vehicle id="138" type="car" route="route9" depart="520" color="0, 255, 0" departSpeed="max"/>
    <vehicle id="139" type="car" route="route10" depart="522" color="255, 0, 0" departSpeed="max"/>
    <vehicle id="140" type="car" route="route10" depart="524" color="255, 0, 0" departSpeed="max"/>
    <vehicle id="141" type="car" route="route11" depart="530" color="0, 255, 0" departSpeed="max"/>
    <vehicle id="142" type="car" route="route6" depart="534" color="0, 255, 0" departSpeed="max"/>
    <vehicle id="143" type="car" route="route9" depart="536" color="0, 255, 0" departSpeed="max"/>
    <vehicle id="144" type="car" route="route2" depart="541" color="0, 255, 0" departSpeed="max"/>
    <vehicle id="145" type="car" route="route7" depart="549" color="255, 0, 0" departSpeed="max"/>
    <vehicle id="146" type="car" route="route6" depart="550" color="255, 0, 0" departSpeed="max"/>
    <vehicle id="147" type="car" route="route6" depart="558" color="0, 255, 0" departSpeed="max"/>
    <vehicle id="148" type="car" route="route6" depart="561" color="0, 255, 0" departSpeed="max"/>
    <vehicle id="149" type="car" route="route4" depart="566" color="255, 0, 0" departSpeed="max"/>
    <vehicle id="150" type="car" route="route1" depart="568" color="255, 0, 0" departSpeed="max"/>
    <vehicle id="151" type="car" route="route10" depart="568" color="255, 0, 0" departSpeed="max"/>
    <vehicle id="152" type="car" route="route4" depart="569" color="255, 0, 0" departSpeed="max"/>
    <vehicle id="153" type="car" route="route7" depart="569" color="255, 0, 0" departSpeed="max"/>
    <vehicle id="154" type="car" route="route6" depart="570" color="0, 255, 0" departSpeed="max"/>
    <vehicle id="155" type="car" route="route1" depart="574" color="255, 0, 0" departSpeed="max"/>
    <vehicle id="156" type="car" route="route3" depart="576" color="255, 0, 0" departSpeed="max"/>
    <vehicle id="157" type="car" route="route5" depart="578" color="255, 0, 0" departSpeed="max"/>
    <vehicle id="158" type="car" route="route11" depart="580" color="0, 255, 0" departSpeed="max"/>
    <vehicle id="159" type="car" route="route9" depart="599" color="0, 255, 0" departSpeed="max"/>
    <vehicle id="160" type="car" route="route4" depart="613" color="0, 255, 0" departSpeed="max"/>
    <vehicle id="161" type="car" route="route0" depart="616" color="255, 0, 0" departSpeed="max"/>
    <vehicle id="162" type="car" route="route4" depart="620" color="0, 255, 0" departSpeed="max"/>
    <vehicle id="163" type="car" route="route7" depart="624" color="0, 255, 0" departSpeed="max"/>
    <vehicle id="164" type="car" route="route11" depart="626" color="0, 255, 0" departSpeed="max"/>
    <vehicle id="165" type="car" route="route7" depart="631" color="0, 255, 0" departSpeed="max"/>
    <vehicle id="166" type="car" route="route2" depart="634" color="0, 255, 0" departSpeed="max"/>
    <vehicle id="167" type="car" route="route9" depart="634" color="0, 255, 0" departSpeed="max"/>
    <vehicle id="168" type="car" route="route3" depart="636" color="0, 255, 0" departSpeed="max"/>
    <vehicle id="169" type="car" route="route10" depart="636" color="0, 255, 0" departSpeed="max"/>
    <vehicle id="170" type="car" route="route4" depart="637" color="255, 0, 0" departSpeed="max"/>
    <vehicle id="171" type="car" route="route10" depart="647" color="0, 255, 0" departSpeed="max"/>
    <vehicle id="172" type="car" route="route1" depart="649" color="0, 255, 0" departSpeed="max"/>
    <vehicle id="173" type="car" route="route11" depart="649" color="255, 0, 0" departSpeed="max"/>
    <vehicle id="174" type="car" route="route0" depart="650" color="0, 255, 0" departSpeed="max"/>
    <vehicle id="175" type="car" route="route7" depart="662" color="0, 255, 0" departSpeed="max"/>
    <vehicle id="176" type="car" route="route9" depart="664" color="255, 0, 0" departSpeed="max"/>
    <vehicle id="177" type="car" route="route1" depart="672" color="0, 255, 0" departSpeed="max"/>
    <vehicle id="178" type="car" route="route6" depart="677" color="0, 255, 0" departSpeed="max"/>
    <vehicle id="179" type="car" route="route11" depart="684" color="0, 255, 0" departSpeed="max"/>
    <vehicle id="180" type="car" route="route4" depart="688" color="0, 255, 0" departSpeed="max"/>
    <vehicle id="181" type="car" route="route5" depart="692" color="0, 255, 0" departSpeed="max"/>
    <vehicle id="182" type="car" route="route1" depart="695" color="255, 0, 0" departSpeed="max"/>
    <vehicle id="183" type="car" route="route5" depart="695" color="0, 255, 0" departSpeed="max"/>
    <vehicle id="184" type="car" route="route10" depart="700" color="0, 255, 0" departSpeed="max"/>
    <vehicle id="185" type="car" route="route2" depart="707" color="0, 255, 0" departSpeed="max"/>
    <vehicle id="186" type="car" route="route10" depart="708" color="0, 255, 0" departSpeed="max"/>
    <vehicle id="187" type="car" route="route3" depart="714" color="0, 255, 0" departSpeed="max"/>
    <vehicle id="188" type="car" route="route5" depart="719" color="255, 0, 0" departSpeed="max"/>
    <vehicle id="189" type="car" route="route4" depart="720" color="0, 255, 0" departSpeed="max"/>
    <vehicle id="190" type="car" route="route5" depart="720" color="0, 255, 0" departSpeed="max"/>
    <vehicle id="191" type="car" route="route9" depart="721" color="255, 0, 0" departSpeed="max"/>
    <vehicle id="192" type="car" route="route8" depart="727" color="255, 0, 0" departSpeed="max"/>
    <vehicle id="193" type="car" route="route1" depart="728" color="255, 0, 0" departSpeed="max"/>
    <vehicle id="194" type="car" route="route2" depart="732" color="0, 255, 0" departSpeed="max"/>
    <vehicle id="195" type="car" route="route1" depart="741" color="255, 0, 0" departSpeed="max"/>
    <vehicle id="196" type="car" route="route4" depart="742" color="255, 0, 0" departSpeed="max"/>
    <vehicle id="197" type="car" route="route0" depart="745" color="255, 0, 0" departSpeed="max"/>
    <vehicle id="198" type="car" route="route9" depart="747" color="0, 255, 0" departSpeed="max"/>
    <vehicle id="199" type="car" route="route7" depart="761" color="0, 255, 0" departSpeed="max"/>
    <vehicle id="200" type="car" route="route10" depart="763" color="0, 255, 0" departSpeed="max"/>
    <vehicle id="201" type="car" route="route0" depart="764" color="0, 255, 0" departSpeed="max"/>
    <vehicle id="202" type="car" route="route2" depart="764" color="0, 255, 0" departSpeed="max"/>
    <vehicle id="203" type="car" route="route9" depart="772" color="0, 255, 0" departSpeed="max"/>
    <vehicle id="204" type="car" route="route7" depart="774" color="255, 0, 0" departSpeed="max"/>
    <vehicle id="205" type="car" route="route8" depart="776" color="255, 0, 0" departSpeed="max"/>
    <vehicle id="206" type="car" route="route9" depart="776" color="0, 255, 0" departSpeed="max"/>
    <vehicle id="207" type="car" route="route3" depart="777" color="0, 255, 0" departSpeed="max"/>
    <vehicle id="208" type="car" route="route1" depart="778" color="255, 0, 0" departSpeed="max"/>
    <vehicle id="209" type="car" route="route7" depart="779" color="0, 255, 0" departSpeed="max"/>
    <vehicle id="210" type="car" route="route0" depart="780" color="0, 255, 0" departSpeed="max"/>
    <vehicle id="211" type="car" route="route10" depart="781" color="0, 255, 0" departSpeed="max"/>
    <vehicle id="212" type="car" route="route10" depart="784" color="0, 255, 0" departSpeed="max"/>
    <vehicle id="213" type="car" route="route8" depart="786" color="0, 255, 0" departSpeed="max"/>
    <vehicle id="214" type="car" route="route10" depart="788" color="0, 255, 0" departSpeed="max"/>
    <vehicle id="215" type="car" route="route5" depart="795" color="0, 255, 0" departSpeed="max"/>
    <vehicle id="216" type="car" route="route4" depart="796" color="0, 255, 0" departSpeed="max"/>
    <vehicle id="217" type="car" route="route0" depart="809" color="0, 255, 0" departSpeed="max"/>
    <vehicle id="218" type="car" route="route4" depart="813" color="255, 0, 0" departSpeed="max"/>
    <vehicle id="219" type="car" route="route6" depart="822" color="0, 255, 0" departSpeed="max"/>
    <vehicle id="220" type="car" route="route5" depart="825" color="0, 255, 0" departSpeed="max"/>
    <vehicle id="221" type="car" route="route7" depart="826" color="0, 255, 0" departSpeed="max"/>
    <vehicle id="222" type="car" route="route4" depart="829" color="0, 255, 0" departSpeed="max"/>
    <vehicle id="223" type="car" route="route11" depart="837" color="0, 255, 0" departSpeed="max"/>
    <vehicle id="224" type="car" route="route4" depart="845" color="255, 0, 0" departSpeed="max"/>
    <vehicle id="225" type="car" route="route9" depart="848" color="255, 0, 0" departSpeed="max"/>
    <vehicle id="226" type="car" route="route6" depart="856" color="0, 255, 0" departSpeed="max"/>
    <vehicle id="227" type="car" route="route5" depart="861" color="0, 255, 0" departSpeed="max"/>
    <vehicle id="228" type="car" route="route4" depart="872" color="255, 0, 0" departSpeed="max"/>
    <vehicle id="229" type="car" route="route2" depart="876" color="0, 255, 0" departSpeed="max"/>
    <vehicle id="230" type="car" route="route11" depart="884" color="255, 0, 0" departSpeed="max"/>
    <vehicle id="231" type="car" route="route6" depart="887" color="255, 0, 0" departSpeed="max"/>
    <vehicle id="232" type="car" route="route1" depart="888" color="255, 0, 0" departSpeed="max"/>
    <vehicle id="233" type="car" route="route2" depart="891" color="0, 255, 0" departSpeed="max"/>
    <vehicle id="234" type="car" route="route11" depart="892" color="255, 0, 0" departSpeed="max"/>
    <vehicle id="235" type="car" route="route4" depart="894" color="0, 255, 0" departSpeed="max"/>
    <vehicle id="236" type="car" route="route7" depart="895" color="0, 255, 0" departSpeed="max"/>
    <vehicle id="237" type="car" route="route4" depart="898" color="255, 0, 0" departSpeed="max"/>
    <vehicle id="238" type="car" route="route9" depart="900" color="0, 255, 0" departSpeed="max"/>
    <vehicle id="239" type="car" route="route8" depart="905" color="0, 255, 0" departSpeed="max"/>
    <vehicle id="240" type="car" route="route7" depart="911" color="0, 255, 0" departSpeed="max"/>
    <vehicle id="241" type="car" route="route7" depart="923" color="255, 0, 0" departSpeed="max"/>
    <vehicle id="242" type="car" route="route1" depart="925" color="0, 255, 0" departSpeed="max"/>
    <vehicle id="243" type="car" route="route8" depart="932" color="255, 0, 0" departSpeed="max"/>
    <vehicle id="244" type="car" route="route2" depart="933" color="0, 255, 0" departSpeed="max"/>
    <vehicle id="245" type="car" route="route11" depart="935" color="255, 0, 0" departSpeed="max"/>
    <vehicle id="246" type="car" route="route11" depart="946" color="0, 255, 0" departSpeed="max"/>
    <vehicle id="247" type="car" route="route11" depart="947" color="0, 255, 0" departSpeed="max"/>
    <vehicle id="248" type="car" route="route7" depart="952" color="255, 0, 0" departSpeed="max"/>
    <vehicle id="249" type="car" route="route3" depart="953" color="0, 255, 0" departSpeed="max"/>
    <vehicle id="250" type="car" route="route7" depart="953" color="0, 255, 0" departSpeed="max"/>
    <vehicle id="251" type="car" route="route9" depart="953" color="0, 255, 0" departSpeed="max"/>
    <vehicle id="252" type="car" route="route9" depart="955" color="0, 255, 0" departSpeed="max"/>
    <vehicle id="253" type="car" route="route10" depart="960" color="0, 255, 0" departSpeed="max"/>
    <vehicle id="254" type="car" route="route5" depart="968" color="0, 255, 0" departSpeed="max"/>
    <vehicle id="255" type="car" route="route11" depart="970" color="255, 0, 0" departSpeed="max"/>
    <vehicle id="256" type="car" route="route7" depart="973" color="0, 255, 0" departSpeed="max"/>
    <vehicle id="257" type="car" route="route1" depart="980" color="0, 255, 0" departSpeed="max"/>
    <vehicle id="258" type="car" route="route5" depart="980" color="255, 0, 0" departSpeed="max"/>
    <vehicle id="259" type="car" route="route2" depart="982" color="255, 0, 0" departSpeed="max"/>
    <vehicle id="260" type="car" route="route1" depart="990" color="0, 255, 0" departSpeed="max"/>
    <vehicle id="261" type="car" route="route11" depart="993" color="0, 255, 0" departSpeed="max"/>
    <vehicle id="262" type="car" route="route8" depart="994" color="255, 0, 0" departSpeed="max"/>
    <vehicle id="263" type="car" route="route6" depart="997" color="0, 255, 0" departSpeed="max"/>
    <vehicle id="264" type="car" route="route8" depart="1003" color="255, 0, 0" departSpeed="max"/>
    <vehicle id="265" type="car" route="route11" depart="1005" color="255, 0, 0" departSpeed="max"/>
    <vehicle id="266" type="car" route="route2" depart="1008" color="0, 255, 0" departSpeed="max"/>
    <vehicle id="267" type="car" route="route6" depart="1008" color="0, 255, 0" departSpeed="max"/>
    <vehicle id="268" type="car" route="route2" depart="1016" color="0, 255, 0" departSpeed="max"/>
    <vehicle id="269" type="car" route="route3" depart="1020" color="0, 255, 0" departSpeed="max"/>
    <vehicle id="270" type="car" route="route0" depart="1022" color="255, 0, 0" departSpeed="max"/>
    <vehicle id="271" type="car" route="route10" depart="1026" color="0, 255, 0" departSpeed="max"/>
    <vehicle id="272" type="car" route="route5" depart="1031" color="0, 255, 0" departSpeed="max"/>
    <vehicle id="273" type="car" route="route6" depart="1032" color="0, 255, 0" departSpeed="max"/>
    <vehicle id="274" type="car" route="route7" depart="1036" color="255, 0, 0" departSpeed="max"/>
    <vehicle id="275" type="car" route="route11" depart="1036" color="255, 0, 0" departSpeed="max"/>
    <vehicle id="276" type="car" route="route1" depart="1049" color="255, 0, 0" departSpeed="max"/>
    <vehicle id="277" type="car" route="route3" depart="1054" color="255, 0, 0" departSpeed="max"/>
    <vehicle id="278" type="car" route="route0" depart="1057" color="255, 0, 0" departSpeed="max"/>
    <vehicle id="279" type="car" route="route3" depart="1059" color="255, 0, 0" departSpeed="max"/>
    <vehicle id="280" type="car" route="route8" depart="1060" color="255, 0, 0" departSpeed="max"/>
    <vehicle id="281" type="car" route="route5" depart="1062" color="0, 255, 0" departSpeed="max"/>
    <vehicle id="282" type="car" route="route6" depart="1070" color="255, 0, 0" departSpeed="max"/>
    <vehicle id="283" type="car" route="route4" depart="1073" color="0, 255, 0" departSpeed="max"/>
    <vehicle id="284" type="car" route="route1" depart="1077" color="0, 255, 0" departSpeed="max"/>
    <vehicle id="285" type="car" route="route2" depart="1081" color="0, 255, 0" departSpeed="max"/>
    <vehicle id="286" type="car" route="route1" depart="1086" color="255, 0, 0" departSpeed="max"/>
    <vehicle id="287" type="car" route="route11" depart="1086" color="255, 0, 0" departSpeed="max"/>
    <vehicle id="288" type="car" route="route3" depart="1093" color="255, 0, 0" departSpeed="max"/>
    <vehicle id="289" type="car" route="route8" depart="1093" color="255, 0, 0" departSpeed="max"/>
    <vehicle id="290" type="car" route="route0" depart="1101" color="255, 0, 0" departSpeed="max"/>
    <vehicle id="291" type="car" route="route8" depart="1106" color="255, 0, 0" departSpeed="max"/>
    <vehicle id="292" type="car" route="route0" depart="1107" color="0, 255, 0" departSpeed="max"/>
    <vehicle id="293" type="car" route="route5" depart="1110" color="0, 255, 0" departSpeed="max"/>
    <vehicle id="294" type="car" route="route7" depart="1110" color="255, 0, 0" departSpeed="max"/>
    <vehicle id="295" type="car" route="route2" depart="1115" color="255, 0, 0" departSpeed="max"/>