<configuration>
    <input>
        <net-file value="simple_intersection.net.xml"/>
        <route-files value="simple_intersection_1331251.rou.xml"/>
    </input>
    <time>
        <begin value="0"/>
        <end value="3000"/>
    </time>
</configuration>
